* PEX produced on Sun Mar 10 05:48:33 PM CET 2024 using /foss/tools/osic-multitool/iic-pex.sh with m=1 and s=1
* NGSPICE file created from tt_um_hpretl_tt06_tempsens.ext - technology: sky130A

.subckt tt_um_hpretl_tt06_tempsens clk ena rst_n ui_in[2] ui_in[4] ui_in[6] uio_in[1]
+ uio_in[3] uio_in[4] uio_in[5] uio_in[6] uio_in[7] uio_oe[4] uio_oe[5] uio_oe[7]
+ uio_out[3] uio_out[4] uio_out[5] uio_out[6] uio_out[7] uo_out[1] uo_out[2] uo_out[3]
+ uo_out[5] uo_out[6] uo_out[7] ui_in[1] uio_out[2] ui_in[3] uio_out[0] uio_oe[3]
+ uo_out[0] ui_in[5] uio_oe[1] uio_oe[6] ui_in[7] uio_oe[0] uio_out[1] uio_oe[2] uio_in[0]
+ ui_in[0] uo_out[4] uio_in[2] VPWR VGND
X0 a_5989_7669# a_5823_7669# VGND VGND sky130_fd_pr__nfet_01v8 ad=0.109 pd=1.36 as=0.0567 ps=0.69 w=0.42 l=0.15
X1 VPWR VGND VPWR VPWR sky130_fd_pr__pfet_01v8_hvt ad=0.226 pd=2.26 as=498 ps=4.72k w=0.87 l=4.73
X2 a_14935_1941# net72 ts.ts_core.dac_vout_ana_ VPWR sky130_fd_pr__pfet_01v8_hvt ad=0.135 pd=1.27 as=0.135 ps=1.27 w=1 l=0.15
X3 a_17051_1941# net15 ts.ts_core.dac_vout_ana_ VPWR sky130_fd_pr__pfet_01v8_hvt ad=0.135 pd=1.27 as=0.135 ps=1.27 w=1 l=0.15
X4 a_12531_9545# _107_ a_12449_9301# VPWR sky130_fd_pr__pfet_01v8_hvt ad=0.0441 pd=0.63 as=0.109 ps=1.36 w=0.42 l=0.15
X5 ts.ts_core.dac_vout_ana_ net14 a_16591_1135# VPWR sky130_fd_pr__pfet_01v8_hvt ad=0.135 pd=1.27 as=0.135 ps=1.27 w=1 l=0.15
X6 _051_ _050_ VGND VGND sky130_fd_pr__nfet_01v8 ad=0.0878 pd=0.92 as=0.0878 ps=0.92 w=0.65 l=0.15
X7 VGND a_17935_13363# net70 VGND sky130_fd_pr__nfet_01v8 ad=0.0588 pd=0.7 as=0.0588 ps=0.7 w=0.42 l=0.15
X8 clknet_2_0__leaf_clk a_4986_7119# VPWR VPWR sky130_fd_pr__pfet_01v8_hvt ad=0.14 pd=1.28 as=0.14 ps=1.28 w=1 l=0.15
X9 a_16753_7983# ts.ts_core.dac.parallel_cells\[1\].vdac_batch.npu_pd ts.ts_core.dac_vout_ana_ VGND sky130_fd_pr__nfet_01v8 ad=0.0878 pd=0.92 as=0.0878 ps=0.92 w=0.65 l=0.15
X10 _099_ _098_ VPWR VPWR sky130_fd_pr__pfet_01v8_hvt ad=0.135 pd=1.27 as=0.26 ps=2.52 w=1 l=0.15
X11 VPWR net35 ts.ts_core.capload\[7\].cap.Y VPWR sky130_fd_pr__pfet_01v8_hvt ad=0.26 pd=2.52 as=0.135 ps=1.27 w=1 l=0.15
X12 VPWR _062_ a_11679_6183# VPWR sky130_fd_pr__pfet_01v8_hvt ad=0.118 pd=1.4 as=0.0567 ps=0.69 w=0.42 l=0.15
X13 VPWR a_13327_9813# _089_ VPWR sky130_fd_pr__pfet_01v8_hvt ad=0.228 pd=1.74 as=0.26 ps=2.52 w=1 l=0.15
X14 VGND _070_ a_10686_10383# VGND sky130_fd_pr__nfet_01v8 ad=0.117 pd=1.01 as=0.185 ps=1.22 w=0.65 l=0.15
X15 a_11127_15797# a_10952_15823# a_11306_15823# VGND sky130_fd_pr__nfet_01v8 ad=0.109 pd=1.36 as=0.064 ps=0.725 w=0.42 l=0.15
X16 a_8653_3677# a_8175_3285# VGND VGND sky130_fd_pr__nfet_01v8 ad=0.0669 pd=0.75 as=0.125 ps=1.01 w=0.42 l=0.15
X17 VGND net7 a_13834_8207# VGND sky130_fd_pr__nfet_01v8 ad=0.169 pd=1.82 as=0.0878 ps=0.92 w=0.65 l=0.15
X18 VGND _154_ a_8625_4438# VGND sky130_fd_pr__nfet_01v8 ad=0.145 pd=1.11 as=0.109 ps=1.36 w=0.42 l=0.15
X19 VGND VPWR VGND VGND sky130_fd_pr__nfet_01v8 ad=0.143 pd=1.62 as=331 ps=3.4k w=0.55 l=4.73
X20 net19 a_8399_14735# VPWR VPWR sky130_fd_pr__pfet_01v8_hvt ad=0.14 pd=1.28 as=0.14 ps=1.28 w=1 l=0.15
X21 net14 a_17783_5487# VGND VGND sky130_fd_pr__nfet_01v8 ad=0.0878 pd=0.92 as=0.0878 ps=0.92 w=0.65 l=0.15
X22 a_10969_6031# a_9779_6031# a_10860_6031# VGND sky130_fd_pr__nfet_01v8 ad=0.0669 pd=0.75 as=0.0711 ps=0.755 w=0.36 l=0.15
X23 ts.ts_core.dac_vout_ana_ net15 a_6817_591# VGND sky130_fd_pr__nfet_01v8 ad=0.0878 pd=0.92 as=0.169 ps=1.82 w=0.65 l=0.15
X24 a_5081_4777# a_3891_4405# a_4972_4777# VGND sky130_fd_pr__nfet_01v8 ad=0.0669 pd=0.75 as=0.0711 ps=0.755 w=0.36 l=0.15
X25 ts.ts_core.dac_vout_ana_ ts.ts_core.dac_vout_ana_ a_9393_1455# VGND sky130_fd_pr__nfet_01v8 ad=0.0878 pd=0.92 as=0.0878 ps=0.92 w=0.65 l=0.15
X26 a_3981_8449# a_3763_8207# VPWR VPWR sky130_fd_pr__pfet_01v8_hvt ad=0.129 pd=1.18 as=0.218 ps=2.2 w=0.84 l=0.15
X27 net69 a_18234_10927# VGND VGND sky130_fd_pr__nfet_01v8 ad=0.0588 pd=0.7 as=0.0588 ps=0.7 w=0.42 l=0.15
X28 a_17051_1941# net15 ts.ts_core.dac_vout_ana_ VPWR sky130_fd_pr__pfet_01v8_hvt ad=0.135 pd=1.27 as=0.135 ps=1.27 w=1 l=0.15
X29 VPWR VGND VPWR VPWR sky130_fd_pr__pfet_01v8_hvt ad=0.226 pd=2.26 as=0 ps=0 w=0.87 l=1.97
X30 ts.ts_core.dac_vout_ana_ net14 a_17695_6575# VPWR sky130_fd_pr__pfet_01v8_hvt ad=0.135 pd=1.27 as=0.135 ps=1.27 w=1 l=0.15
X31 VPWR _112_ _114_ VPWR sky130_fd_pr__pfet_01v8_hvt ad=0.135 pd=1.27 as=0.135 ps=1.27 w=1 l=0.15
X32 VGND clknet_2_0__leaf_clk a_3247_8207# VGND sky130_fd_pr__nfet_01v8 ad=0.0567 pd=0.69 as=0.109 ps=1.36 w=0.42 l=0.15
X33 VGND net69 a_16661_12335# VGND sky130_fd_pr__nfet_01v8 ad=0.0878 pd=0.92 as=0.0878 ps=0.92 w=0.65 l=0.15
X34 VPWR ts.ts_core.dcdel_capnode_ana_ ts.ts_core.dcdel_out_n VPWR sky130_fd_pr__pfet_01v8_hvt ad=0.26 pd=2.52 as=0.26 ps=2.52 w=1 l=0.15
X35 net9 a_18671_14451# VPWR VPWR sky130_fd_pr__pfet_01v8_hvt ad=0.14 pd=1.28 as=0.14 ps=1.28 w=1 l=0.15
X36 _012_ _167_ a_1861_13103# VPWR sky130_fd_pr__pfet_01v8_hvt ad=0.26 pd=2.52 as=0.135 ps=1.27 w=1 l=0.15
X37 a_4588_5807# net59 VGND VGND sky130_fd_pr__nfet_01v8 ad=0.172 pd=1.83 as=0.0878 ps=0.92 w=0.65 l=0.15
X38 VPWR a_17507_8751# a_17695_8751# VPWR sky130_fd_pr__pfet_01v8_hvt ad=0.127 pd=1.21 as=0.127 ps=1.21 w=0.94 l=0.15
X39 VPWR VGND VPWR VPWR sky130_fd_pr__pfet_01v8_hvt ad=0.226 pd=2.26 as=0 ps=0 w=0.87 l=0.59
X40 VGND net19 a_12489_15645# VGND sky130_fd_pr__nfet_01v8 ad=0.135 pd=1.15 as=0.0441 ps=0.63 w=0.42 l=0.15
X41 VGND clknet_2_2__leaf_clk a_5823_11471# VGND sky130_fd_pr__nfet_01v8 ad=0.0567 pd=0.69 as=0.109 ps=1.36 w=0.42 l=0.15
X42 VPWR VGND VPWR VPWR sky130_fd_pr__pfet_01v8_hvt ad=0.226 pd=2.26 as=0 ps=0 w=0.87 l=1.97
X43 VGND a_3854_3967# a_3812_3855# VGND sky130_fd_pr__nfet_01v8 ad=0.121 pd=1.09 as=0.0696 ps=0.765 w=0.42 l=0.15
X44 a_4590_12381# net18 VGND VGND sky130_fd_pr__nfet_01v8 ad=0.064 pd=0.725 as=0.125 ps=1.01 w=0.42 l=0.15
X45 a_12884_4777# a_11803_4405# a_12537_4373# VPWR sky130_fd_pr__pfet_01v8_hvt ad=0.0588 pd=0.7 as=0.129 ps=1.18 w=0.42 l=0.15
X46 a_2869_10205# ts.ts_ctrl.temp_ctr\[7\] a_2787_10205# VGND sky130_fd_pr__nfet_01v8 ad=0.0609 pd=0.71 as=0.109 ps=1.36 w=0.42 l=0.15
X47 a_14475_5205# ts.ts_core.dac.parallel_cells\[2\].vdac_batch.npu_pd ts.ts_core.dac_vout_ana_ VPWR sky130_fd_pr__pfet_01v8_hvt ad=0.135 pd=1.27 as=0.135 ps=1.27 w=1 l=0.15
X48 VPWR VGND VPWR VPWR sky130_fd_pr__pfet_01v8_hvt ad=0.226 pd=2.26 as=0 ps=0 w=0.87 l=2.89
X49 a_13499_11247# a_13445_11159# a_13399_11247# VGND sky130_fd_pr__nfet_01v8 ad=0.0588 pd=0.7 as=0.0735 ps=0.77 w=0.42 l=0.15
X50 VGND VPWR VGND VGND sky130_fd_pr__nfet_01v8 ad=0.143 pd=1.62 as=0 ps=0 w=0.55 l=0.59
X51 a_10335_4117# a_10147_3855# VPWR VPWR sky130_fd_pr__pfet_01v8_hvt ad=0.127 pd=1.21 as=0.127 ps=1.21 w=0.94 l=0.15
X52 a_17695_4399# ts.ts_core.dac.parallel_cells\[0\].vdac_batch.npu_pd ts.ts_core.dac_vout_ana_ VPWR sky130_fd_pr__pfet_01v8_hvt ad=0.135 pd=1.27 as=0.135 ps=1.27 w=1 l=0.15
X53 a_14567_6575# a_14379_6575# VPWR VPWR sky130_fd_pr__pfet_01v8_hvt ad=0.127 pd=1.21 as=0.127 ps=1.21 w=0.94 l=0.15
X54 a_8856_10383# _055_ a_8468_10357# VGND sky130_fd_pr__nfet_01v8 ad=0.114 pd=1 as=0.0878 ps=0.92 w=0.65 l=0.15
X55 VPWR a_16043_7271# a_15308_7369# VPWR sky130_fd_pr__pfet_01v8_hvt ad=0.127 pd=1.21 as=0.127 ps=1.21 w=0.94 l=0.15
X56 ts.ts_core.dac_vout_ana_ ts.ts_core.dac.parallel_cells\[1\].vdac_batch.npu_pd a_17143_8469# VPWR sky130_fd_pr__pfet_01v8_hvt ad=0.135 pd=1.27 as=0.135 ps=1.27 w=1 l=0.15
X57 a_10023_4917# a_9848_4943# a_10202_4943# VGND sky130_fd_pr__nfet_01v8 ad=0.109 pd=1.36 as=0.064 ps=0.725 w=0.42 l=0.15
X58 a_1589_8725# a_1371_9129# VGND VGND sky130_fd_pr__nfet_01v8 ad=0.0999 pd=0.985 as=0.135 ps=1.15 w=0.64 l=0.15
X59 a_17935_13363# ts.ts_core.dac.parallel_cells\[4\].vdac_batch.en_vref VPWR VPWR sky130_fd_pr__pfet_01v8_hvt ad=0.265 pd=2.53 as=0.165 ps=1.33 w=1 l=0.15
X60 a_9061_16665# _211_ VPWR VPWR sky130_fd_pr__pfet_01v8_hvt ad=0.118 pd=1.4 as=0.0693 ps=0.75 w=0.42 l=0.15
X61 VPWR _098_ a_13275_6281# VPWR sky130_fd_pr__pfet_01v8_hvt ad=0.28 pd=2.56 as=0.105 ps=1.21 w=1 l=0.15
X62 a_12851_7119# _111_ VGND VGND sky130_fd_pr__nfet_01v8 ad=0.169 pd=1.82 as=0.0878 ps=0.92 w=0.65 l=0.15
X63 ts.ts_core.dac_vout_ana_ net15 a_7759_1135# VPWR sky130_fd_pr__pfet_01v8_hvt ad=0.135 pd=1.27 as=0.135 ps=1.27 w=1 l=0.15
X64 a_9960_10383# ts.o_res\[8\] a_9770_10633# VGND sky130_fd_pr__nfet_01v8 ad=0.146 pd=1.1 as=0.143 ps=1.09 w=0.65 l=0.15
X65 _086_ a_8859_13103# VPWR VPWR sky130_fd_pr__pfet_01v8_hvt ad=0.26 pd=2.52 as=0.157 ps=1.32 w=1 l=0.15
X66 a_16569_1455# net14 ts.ts_core.dac_vout_ana_ VGND sky130_fd_pr__nfet_01v8 ad=0.0878 pd=0.92 as=0.0878 ps=0.92 w=0.65 l=0.15
X67 VPWR net9 a_8809_8534# VPWR sky130_fd_pr__pfet_01v8_hvt ad=0.0693 pd=0.75 as=0.118 ps=1.4 w=0.42 l=0.15
X68 a_4111_4221# a_3413_3855# a_3854_3967# VGND sky130_fd_pr__nfet_01v8 ad=0.0684 pd=0.74 as=0.0989 ps=0.995 w=0.36 l=0.15
X69 VGND clknet_0_clk a_7838_14191# VGND sky130_fd_pr__nfet_01v8 ad=0.0588 pd=0.7 as=0.0588 ps=0.7 w=0.42 l=0.15
R0 VGND uio_out[2] sky130_fd_pr__res_generic_po w=0.48 l=0.045
X70 _010_ _164_ VGND VGND sky130_fd_pr__nfet_01v8 ad=0.169 pd=1.82 as=0.0878 ps=0.92 w=0.65 l=0.15
X71 VGND net69 a_15649_11471# VGND sky130_fd_pr__nfet_01v8 ad=0.0878 pd=0.92 as=0.0878 ps=0.92 w=0.65 l=0.15
X72 a_8638_17821# net19 VGND VGND sky130_fd_pr__nfet_01v8 ad=0.064 pd=0.725 as=0.125 ps=1.01 w=0.42 l=0.15
X73 VGND ts.ts_core.dac.parallel_cells\[3\].vdac_batch.en_vref a_8496_1679# VGND sky130_fd_pr__nfet_01v8 ad=0.0878 pd=0.92 as=0.0878 ps=0.92 w=0.65 l=0.15
X74 a_6711_15657# a_6265_15285# a_6615_15657# VGND sky130_fd_pr__nfet_01v8 ad=0.14 pd=1.1 as=0.0594 ps=0.69 w=0.36 l=0.15
X75 VPWR a_14663_5461# a_13928_5487# VPWR sky130_fd_pr__pfet_01v8_hvt ad=0.127 pd=1.21 as=0.127 ps=1.21 w=0.94 l=0.15
X76 VGND net53 a_1407_3855# VGND sky130_fd_pr__nfet_01v8 ad=0.0567 pd=0.69 as=0.109 ps=1.36 w=0.42 l=0.15
X77 a_9850_4399# a_9577_4405# a_9765_4399# VPWR sky130_fd_pr__pfet_01v8_hvt ad=0.0683 pd=0.745 as=0.0578 ps=0.695 w=0.42 l=0.15
X78 _064_ a_13731_8751# VGND VGND sky130_fd_pr__nfet_01v8 ad=0.169 pd=1.82 as=0.101 ps=0.99 w=0.65 l=0.15
X79 net10 a_18848_13621# VGND VGND sky130_fd_pr__nfet_01v8 ad=0.0878 pd=0.92 as=0.172 ps=1.83 w=0.65 l=0.15
X80 a_14475_6293# a_14287_6031# VPWR VPWR sky130_fd_pr__pfet_01v8_hvt ad=0.127 pd=1.21 as=0.127 ps=1.21 w=0.94 l=0.15
X81 a_12757_12015# _068_ a_12673_12015# VPWR sky130_fd_pr__pfet_01v8_hvt ad=0.165 pd=1.33 as=0.135 ps=1.27 w=1 l=0.15
X82 a_12819_2223# ts.ts_core.dac_vout_ana_ ts.ts_core.dac_vout_ana_ VPWR sky130_fd_pr__pfet_01v8_hvt ad=0.135 pd=1.27 as=0.135 ps=1.27 w=1 l=0.15
X83 a_15591_5487# ts.ts_ctrl.state\[1\] _112_ VPWR sky130_fd_pr__pfet_01v8_hvt ad=0.135 pd=1.27 as=0.135 ps=1.27 w=1 l=0.15
X84 VGND VPWR VGND VGND sky130_fd_pr__nfet_01v8 ad=0.143 pd=1.62 as=0 ps=0 w=0.55 l=0.59
X85 a_9464_16911# _038_ VPWR VPWR sky130_fd_pr__pfet_01v8_hvt ad=0.0651 pd=0.73 as=0.109 ps=1.36 w=0.42 l=0.15
X86 a_11969_2767# net67 VGND VGND sky130_fd_pr__nfet_01v8 ad=0.0943 pd=0.94 as=0.0878 ps=0.92 w=0.65 l=0.15
X87 a_12808_5603# ts.ts_ctrl.state\[0\] VPWR VPWR sky130_fd_pr__pfet_01v8_hvt ad=0.0567 pd=0.69 as=0.148 ps=1.34 w=0.42 l=0.15
X88 a_14195_9295# _135_ VGND VGND sky130_fd_pr__nfet_01v8 ad=0.169 pd=1.82 as=0.0878 ps=0.92 w=0.65 l=0.15
X89 a_2290_7119# net16 VGND VGND sky130_fd_pr__nfet_01v8 ad=0.064 pd=0.725 as=0.125 ps=1.01 w=0.42 l=0.15
X90 a_8235_8790# ts.o_res\[3\] a_8235_9117# VGND sky130_fd_pr__nfet_01v8 ad=0.0997 pd=0.895 as=0.0693 ps=0.75 w=0.42 l=0.15
X91 VPWR clknet_2_3__leaf_clk a_11619_14735# VPWR sky130_fd_pr__pfet_01v8_hvt ad=0.0864 pd=0.91 as=0.166 ps=1.8 w=0.64 l=0.15
X92 a_16687_9447# ts.ts_core.dac.parallel_cells\[1\].vdac_batch.en_vref VGND VGND sky130_fd_pr__nfet_01v8 ad=0.169 pd=1.82 as=0.0878 ps=0.92 w=0.65 l=0.15
X93 a_6945_11225# _154_ VPWR VPWR sky130_fd_pr__pfet_01v8_hvt ad=0.118 pd=1.4 as=0.0693 ps=0.75 w=0.42 l=0.15
X94 VGND a_4411_12319# a_4345_12393# VGND sky130_fd_pr__nfet_01v8 ad=0.125 pd=1.01 as=0.0669 ps=0.75 w=0.42 l=0.15
X95 a_4503_4777# a_4057_4405# a_4407_4777# VGND sky130_fd_pr__nfet_01v8 ad=0.14 pd=1.1 as=0.0594 ps=0.69 w=0.36 l=0.15
X96 VGND net9 a_8809_8534# VGND sky130_fd_pr__nfet_01v8 ad=0.145 pd=1.11 as=0.109 ps=1.36 w=0.42 l=0.15
X97 ts.ts_core.dac_vout_ana_ ts.ts_core.dac_vout_ana_ a_17603_9839# VPWR sky130_fd_pr__pfet_01v8_hvt ad=0.135 pd=1.27 as=0.135 ps=1.27 w=1 l=0.15
X98 a_11985_17429# a_11767_17833# VPWR VPWR sky130_fd_pr__pfet_01v8_hvt ad=0.129 pd=1.18 as=0.218 ps=2.2 w=0.84 l=0.15
X99 a_15304_8207# net47 ts.ts_core.dac_vout_ana_ VGND sky130_fd_pr__nfet_01v8 ad=0.0878 pd=0.92 as=0.0878 ps=0.92 w=0.65 l=0.15
X100 a_9045_9839# ts.ts_ctrl.temp_ctr\[3\] VPWR VPWR sky130_fd_pr__pfet_01v8_hvt ad=0.138 pd=1.27 as=0.14 ps=1.28 w=1 l=0.15
X101 a_16775_7663# a_16587_7663# VPWR VPWR sky130_fd_pr__pfet_01v8_hvt ad=0.127 pd=1.21 as=0.127 ps=1.21 w=0.94 l=0.15
X102 a_8657_2767# net67 VGND VGND sky130_fd_pr__nfet_01v8 ad=0.0943 pd=0.94 as=0.0878 ps=0.92 w=0.65 l=0.15
X103 a_3105_14557# a_3061_14165# a_2939_14569# VGND sky130_fd_pr__nfet_01v8 ad=0.0441 pd=0.63 as=0.14 ps=1.1 w=0.42 l=0.15
X104 a_2695_12559# ts.ts_ctrl.temp_ctr\[5\] VPWR VPWR sky130_fd_pr__pfet_01v8_hvt ad=0.0662 pd=0.735 as=0.0567 ps=0.69 w=0.42 l=0.15
X105 a_8749_12809# ts.o_res\[15\] VPWR VPWR sky130_fd_pr__pfet_01v8_hvt ad=0.165 pd=1.33 as=0.26 ps=2.52 w=1 l=0.15
X106 VPWR a_9971_743# a_9236_841# VPWR sky130_fd_pr__pfet_01v8_hvt ad=0.127 pd=1.21 as=0.127 ps=1.21 w=0.94 l=0.15
X107 VPWR VGND VPWR VPWR sky130_fd_pr__pfet_01v8_hvt ad=0.226 pd=2.26 as=0 ps=0 w=0.87 l=2.89
X108 VPWR VGND VPWR VPWR sky130_fd_pr__pfet_01v8_hvt ad=0.226 pd=2.26 as=0 ps=0 w=0.87 l=4.73
X109 a_12809_11247# _077_ VGND VGND sky130_fd_pr__nfet_01v8 ad=0.169 pd=1.82 as=0.0878 ps=0.92 w=0.65 l=0.15
X110 ts.ts_core.dac_vout_ana_ ts.ts_core.dac_vout_ana_ a_17121_7119# VGND sky130_fd_pr__nfet_01v8 ad=0.0878 pd=0.92 as=0.0878 ps=0.92 w=0.65 l=0.15
X111 VGND VPWR VGND VGND sky130_fd_pr__nfet_01v8 ad=0.143 pd=1.62 as=0 ps=0 w=0.55 l=2.89
X112 a_6817_591# net67 VGND VGND sky130_fd_pr__nfet_01v8 ad=0.0878 pd=0.92 as=0.0878 ps=0.92 w=0.65 l=0.15
X113 VGND VPWR VGND VGND sky130_fd_pr__nfet_01v8 ad=0.143 pd=1.62 as=0 ps=0 w=0.55 l=1.05
X114 VPWR VGND VPWR VPWR sky130_fd_pr__pfet_01v8_hvt ad=0.226 pd=2.26 as=0 ps=0 w=0.87 l=1.97
X115 VGND net67 a_16109_6031# VGND sky130_fd_pr__nfet_01v8 ad=0.0878 pd=0.92 as=0.0943 ps=0.94 w=0.65 l=0.15
X116 a_10689_12809# ts.o_res\[6\] a_10607_12809# VPWR sky130_fd_pr__pfet_01v8_hvt ad=0.135 pd=1.27 as=0.26 ps=2.52 w=1 l=0.15
X117 a_9333_17999# a_9298_18251# a_9095_17973# VGND sky130_fd_pr__nfet_01v8 ad=0.064 pd=0.725 as=0.109 ps=1.36 w=0.42 l=0.15
X118 VGND net67 a_11969_2767# VGND sky130_fd_pr__nfet_01v8 ad=0.0878 pd=0.92 as=0.0878 ps=0.92 w=0.65 l=0.15
X119 _135_ a_14177_9839# VPWR VPWR sky130_fd_pr__pfet_01v8_hvt ad=0.26 pd=2.52 as=0.141 ps=1.33 w=1 l=0.15
X120 a_7075_13481# a_6725_13109# a_6980_13469# VPWR sky130_fd_pr__pfet_01v8_hvt ad=0.0724 pd=0.765 as=0.0651 ps=0.73 w=0.42 l=0.15
X121 VGND VPWR VGND VGND sky130_fd_pr__nfet_01v8 ad=0.143 pd=1.62 as=0 ps=0 w=0.55 l=1.97
X122 VGND net20 a_5773_14735# VGND sky130_fd_pr__nfet_01v8 ad=0.135 pd=1.15 as=0.0441 ps=0.63 w=0.42 l=0.15
X123 a_7737_1455# net15 ts.ts_core.dac_vout_ana_ VGND sky130_fd_pr__nfet_01v8 ad=0.0878 pd=0.92 as=0.0878 ps=0.92 w=0.65 l=0.15
X124 VGND VPWR VGND VGND sky130_fd_pr__nfet_01v8 ad=0.143 pd=1.62 as=0 ps=0 w=0.55 l=1.97
X125 clknet_2_2__leaf_clk a_4513_13621# VGND VGND sky130_fd_pr__nfet_01v8 ad=0.0588 pd=0.7 as=0.0578 ps=0.695 w=0.42 l=0.15
X126 a_10313_3855# net71 ts.ts_core.dac_vout_ana_ VGND sky130_fd_pr__nfet_01v8 ad=0.0878 pd=0.92 as=0.0878 ps=0.92 w=0.65 l=0.15
X127 a_16591_1135# a_16403_1135# VPWR VPWR sky130_fd_pr__pfet_01v8_hvt ad=0.127 pd=1.21 as=0.127 ps=1.21 w=0.94 l=0.15
X128 VGND _144_ ts.ts_core.dac.parallel_cells\[3\].vdac_batch.en_vref VGND sky130_fd_pr__nfet_01v8 ad=0.0878 pd=0.92 as=0.0878 ps=0.92 w=0.65 l=0.15
X129 a_9687_10633# _075_ a_9770_10633# VPWR sky130_fd_pr__pfet_01v8_hvt ad=0.185 pd=1.37 as=0.14 ps=1.28 w=1 l=0.15
X130 VGND net67 a_8657_2767# VGND sky130_fd_pr__nfet_01v8 ad=0.0878 pd=0.92 as=0.0878 ps=0.92 w=0.65 l=0.15
X131 net16 a_5423_4917# VPWR VPWR sky130_fd_pr__pfet_01v8_hvt ad=0.14 pd=1.28 as=0.14 ps=1.28 w=1 l=0.15
X132 VPWR VGND VPWR VPWR sky130_fd_pr__pfet_01v8_hvt ad=0.226 pd=2.26 as=0 ps=0 w=0.87 l=0.59
X133 ts.ts_core.dac.parallel_cells\[2\].vdac_batch.npu_pd _065_ a_16170_6895# VGND sky130_fd_pr__nfet_01v8 ad=0.091 pd=0.93 as=0.185 ps=1.87 w=0.65 l=0.15
X134 VGND a_4986_7119# clknet_2_0__leaf_clk VGND sky130_fd_pr__nfet_01v8 ad=0.111 pd=1.37 as=0.0588 ps=0.7 w=0.42 l=0.15
X135 VPWR net9 a_7521_8534# VPWR sky130_fd_pr__pfet_01v8_hvt ad=0.0693 pd=0.75 as=0.118 ps=1.4 w=0.42 l=0.15
X136 ts.ts_core.dac_vout_ana_ ts.ts_core.dac_vout_ana_ a_17029_14735# VGND sky130_fd_pr__nfet_01v8 ad=0.0878 pd=0.92 as=0.0878 ps=0.92 w=0.65 l=0.15
X137 a_4956_5461# _201_ a_5085_5487# VPWR sky130_fd_pr__pfet_01v8_hvt ad=0.32 pd=2.64 as=0.165 ps=1.33 w=1 l=0.15
X138 VPWR a_2111_11231# a_2098_10927# VPWR sky130_fd_pr__pfet_01v8_hvt ad=0.0819 pd=0.81 as=0.0567 ps=0.69 w=0.42 l=0.15
X139 VGND VPWR VGND VGND sky130_fd_pr__nfet_01v8 ad=0.143 pd=1.62 as=0 ps=0 w=0.55 l=1.97
X140 VGND VPWR VGND VGND sky130_fd_pr__nfet_01v8 ad=0.143 pd=1.62 as=0 ps=0 w=0.55 l=4.73
X141 ts.ts_core.dac_vout_ana_ ts.ts_core.dac_vout_ana_ a_16569_10383# VGND sky130_fd_pr__nfet_01v8 ad=0.0878 pd=0.92 as=0.169 ps=1.82 w=0.65 l=0.15
X142 ts.ts_core.dac_vout_ana_ ts.ts_core.dac_vout_ana_ a_14085_3855# VGND sky130_fd_pr__nfet_01v8 ad=0.0878 pd=0.92 as=0.0878 ps=0.92 w=0.65 l=0.15
X143 ts.ts_core.dac_vout_ana_ net71 a_11991_1941# VPWR sky130_fd_pr__pfet_01v8_hvt ad=0.135 pd=1.27 as=0.135 ps=1.27 w=1 l=0.15
X144 a_6265_15285# a_6099_15285# VGND VGND sky130_fd_pr__nfet_01v8 ad=0.109 pd=1.36 as=0.0567 ps=0.69 w=0.42 l=0.15
X145 a_7321_16733# ts.ts_ctrl.temp_ctr\[13\] VGND VGND sky130_fd_pr__nfet_01v8 ad=0.0441 pd=0.63 as=0.132 ps=1.14 w=0.42 l=0.15
X146 VGND a_11679_6183# _136_ VGND sky130_fd_pr__nfet_01v8 ad=0.112 pd=1.04 as=0.182 ps=1.86 w=0.65 l=0.15
X147 VPWR a_15399_12711# a_14664_12809# VPWR sky130_fd_pr__pfet_01v8_hvt ad=0.127 pd=1.21 as=0.127 ps=1.21 w=0.94 l=0.15
X148 ts.ts_core.dac_vout_ana_ net14 a_11808_3855# VGND sky130_fd_pr__nfet_01v8 ad=0.0878 pd=0.92 as=0.0878 ps=0.92 w=0.65 l=0.15
X149 a_10441_15577# _211_ VPWR VPWR sky130_fd_pr__pfet_01v8_hvt ad=0.118 pd=1.4 as=0.0693 ps=0.75 w=0.42 l=0.15
X150 _196_ ts.ts_ctrl.temp_ctr\[17\] a_3977_6895# VGND sky130_fd_pr__nfet_01v8 ad=0.169 pd=1.82 as=0.0878 ps=0.92 w=0.65 l=0.15
X151 VPWR a_16955_4943# a_17143_5205# VPWR sky130_fd_pr__pfet_01v8_hvt ad=0.127 pd=1.21 as=0.127 ps=1.21 w=0.94 l=0.15
X152 VGND net68 a_11808_4943# VGND sky130_fd_pr__nfet_01v8 ad=0.0878 pd=0.92 as=0.0878 ps=0.92 w=0.65 l=0.15
X153 clknet_2_2__leaf_clk a_4513_13621# VGND VGND sky130_fd_pr__nfet_01v8 ad=0.0588 pd=0.7 as=0.0588 ps=0.7 w=0.42 l=0.15
X154 ts.ts_core.dac_vout_ana_ ts.ts_core.dac_vout_ana_ a_10313_1679# VGND sky130_fd_pr__nfet_01v8 ad=0.0878 pd=0.92 as=0.169 ps=1.82 w=0.65 l=0.15
X155 a_3503_10927# net18 VPWR VPWR sky130_fd_pr__pfet_01v8_hvt ad=0.109 pd=1.36 as=0.0703 ps=0.755 w=0.42 l=0.15
X156 a_4131_17833# a_3615_17461# a_4036_17821# VGND sky130_fd_pr__nfet_01v8 ad=0.0594 pd=0.69 as=0.066 ps=0.745 w=0.36 l=0.15
X157 VPWR a_16127_591# a_16315_853# VPWR sky130_fd_pr__pfet_01v8_hvt ad=0.127 pd=1.21 as=0.244 ps=2.4 w=0.94 l=0.15
X158 a_17695_6575# a_17507_6575# VPWR VPWR sky130_fd_pr__pfet_01v8_hvt ad=0.127 pd=1.21 as=0.127 ps=1.21 w=0.94 l=0.15
X159 VGND net9 a_7521_8534# VGND sky130_fd_pr__nfet_01v8 ad=0.145 pd=1.11 as=0.109 ps=1.36 w=0.42 l=0.15
X160 a_1276_14735# _016_ VPWR VPWR sky130_fd_pr__pfet_01v8_hvt ad=0.0651 pd=0.73 as=0.109 ps=1.36 w=0.42 l=0.15
X161 VPWR clknet_0_clk a_4986_7119# VPWR sky130_fd_pr__pfet_01v8_hvt ad=0.14 pd=1.28 as=0.14 ps=1.28 w=1 l=0.15
X162 VPWR VGND VPWR VPWR sky130_fd_pr__pfet_01v8_hvt ad=0.226 pd=2.26 as=0 ps=0 w=0.87 l=0.59
X163 VPWR a_16403_10383# a_16591_10645# VPWR sky130_fd_pr__pfet_01v8_hvt ad=0.127 pd=1.21 as=0.244 ps=2.4 w=0.94 l=0.15
X164 a_12997_6031# _098_ VGND VGND sky130_fd_pr__nfet_01v8 ad=0.169 pd=1.82 as=0.0878 ps=0.92 w=0.65 l=0.15
X165 _059_ net10 VPWR VPWR sky130_fd_pr__pfet_01v8_hvt ad=0.135 pd=1.27 as=0.135 ps=1.27 w=1 l=0.15
X166 VPWR ts.ts_ctrl.state\[0\] a_10605_3427# VPWR sky130_fd_pr__pfet_01v8_hvt ad=0.148 pd=1.34 as=0.0441 ps=0.63 w=0.42 l=0.15
X167 VGND ts.ts_core.dac.parallel_cells\[1\].vdac_batch.en_vref a_17121_7119# VGND sky130_fd_pr__nfet_01v8 ad=0.0878 pd=0.92 as=0.0878 ps=0.92 w=0.65 l=0.15
X168 VPWR a_16687_9447# a_15952_9545# VPWR sky130_fd_pr__pfet_01v8_hvt ad=0.127 pd=1.21 as=0.127 ps=1.21 w=0.94 l=0.15
X169 uo_out[1] a_11456_11247# VPWR VPWR sky130_fd_pr__pfet_01v8_hvt ad=0.135 pd=1.27 as=0.135 ps=1.27 w=1 l=0.15
X170 a_8481_7119# ts.ts_ctrl.temp_ctr\[18\] VGND VGND sky130_fd_pr__nfet_01v8 ad=0.0747 pd=0.88 as=0.169 ps=1.82 w=0.65 l=0.15
X171 VPWR a_9095_17973# ts.o_res\[12\] VPWR sky130_fd_pr__pfet_01v8_hvt ad=0.301 pd=2.66 as=0.26 ps=2.52 w=1 l=0.15
X172 VGND ts.ts_core.dac.parallel_cells\[2\].vdac_batch.en_pupd a_14453_4943# VGND sky130_fd_pr__nfet_01v8 ad=0.182 pd=1.86 as=0.0878 ps=0.92 w=0.65 l=0.15
X173 a_10335_1941# a_10147_1679# VPWR VPWR sky130_fd_pr__pfet_01v8_hvt ad=0.127 pd=1.21 as=0.127 ps=1.21 w=0.94 l=0.15
X174 a_8179_5865# a_7663_5493# a_8084_5853# VGND sky130_fd_pr__nfet_01v8 ad=0.0594 pd=0.69 as=0.066 ps=0.745 w=0.36 l=0.15
X175 a_16569_10383# ts.ts_core.dac_vout_ana_ ts.ts_core.dac_vout_ana_ VGND sky130_fd_pr__nfet_01v8 ad=0.0878 pd=0.92 as=0.0878 ps=0.92 w=0.65 l=0.15
X176 ts.ts_core.dac_vout_ana_ net72 a_9415_2223# VPWR sky130_fd_pr__pfet_01v8_hvt ad=0.135 pd=1.27 as=0.16 ps=1.33 w=1 l=0.15
X177 net14 a_17783_5487# VGND VGND sky130_fd_pr__nfet_01v8 ad=0.0878 pd=0.92 as=0.0878 ps=0.92 w=0.65 l=0.15
X178 net11 a_18756_15797# VGND VGND sky130_fd_pr__nfet_01v8 ad=0.0878 pd=0.92 as=0.172 ps=1.83 w=0.65 l=0.15
X179 VPWR net53 a_1407_3855# VPWR sky130_fd_pr__pfet_01v8_hvt ad=0.0864 pd=0.91 as=0.166 ps=1.8 w=0.64 l=0.15
X180 VGND net67 a_14545_6895# VGND sky130_fd_pr__nfet_01v8 ad=0.0878 pd=0.92 as=0.0878 ps=0.92 w=0.65 l=0.15
X181 VGND _112_ a_10227_6895# VGND sky130_fd_pr__nfet_01v8 ad=0.172 pd=1.83 as=0.0959 ps=0.945 w=0.65 l=0.15
X182 _142_ a_18735_6059# VPWR VPWR sky130_fd_pr__pfet_01v8_hvt ad=0.475 pd=2.95 as=0.167 ps=1.39 w=1 l=0.15
X183 _168_ a_2695_12559# VGND VGND sky130_fd_pr__nfet_01v8 ad=0.169 pd=1.82 as=0.132 ps=1.14 w=0.65 l=0.15
X184 clknet_2_3__leaf_clk a_7838_14191# VPWR VPWR sky130_fd_pr__pfet_01v8_hvt ad=0.14 pd=1.28 as=0.14 ps=1.28 w=1 l=0.15
X185 a_7759_1135# a_7571_1135# VPWR VPWR sky130_fd_pr__pfet_01v8_hvt ad=0.127 pd=1.21 as=0.127 ps=1.21 w=0.94 l=0.15
X186 VPWR _141_ a_18735_6059# VPWR sky130_fd_pr__pfet_01v8_hvt ad=0.167 pd=1.39 as=0.0567 ps=0.69 w=0.42 l=0.15
X187 VGND ts.ts_core.dac.parallel_cells\[3\].vdac_batch.en_vref a_9232_591# VGND sky130_fd_pr__nfet_01v8 ad=0.0878 pd=0.92 as=0.0943 ps=0.94 w=0.65 l=0.15
R1 uio_oe[0] VGND sky130_fd_pr__res_generic_po w=0.48 l=0.045
X188 a_17581_10159# ts.ts_core.dac_vout_ana_ ts.ts_core.dac_vout_ana_ VGND sky130_fd_pr__nfet_01v8 ad=0.182 pd=1.86 as=0.0878 ps=0.92 w=0.65 l=0.15
X189 uo_out[5] a_9524_12559# VGND VGND sky130_fd_pr__nfet_01v8 ad=0.0878 pd=0.92 as=0.0878 ps=0.92 w=0.65 l=0.15
X190 VGND a_4495_16885# _018_ VGND sky130_fd_pr__nfet_01v8 ad=0.169 pd=1.82 as=0.169 ps=1.82 w=0.65 l=0.15
X191 VGND VPWR VGND VGND sky130_fd_pr__nfet_01v8 ad=0.143 pd=1.62 as=0 ps=0 w=0.55 l=4.73
X192 a_10313_3855# ts.ts_core.dac.parallel_cells\[3\].vdac_batch.en_pupd VGND VGND sky130_fd_pr__nfet_01v8 ad=0.0878 pd=0.92 as=0.0878 ps=0.92 w=0.65 l=0.15
X193 VPWR a_9112_11989# uo_out[7] VPWR sky130_fd_pr__pfet_01v8_hvt ad=0.135 pd=1.27 as=0.135 ps=1.27 w=1 l=0.15
X194 VGND _083_ a_10585_13647# VGND sky130_fd_pr__nfet_01v8 ad=0.101 pd=0.96 as=0.114 ps=1 w=0.65 l=0.15
X195 a_4328_15823# a_3413_15823# a_3981_16065# VGND sky130_fd_pr__nfet_01v8 ad=0.0711 pd=0.755 as=0.0999 ps=0.985 w=0.36 l=0.15
X196 a_13611_4917# ts.ts_core.dac.parallel_cells\[4\].vdac_batch.en_pupd VPWR VPWR sky130_fd_pr__pfet_01v8_hvt ad=0.265 pd=2.53 as=0.165 ps=1.33 w=1 l=0.15
X197 a_17862_6281# _061_ ts.ts_core.dac.parallel_cells\[3\].vdac_batch.npu_pd VPWR sky130_fd_pr__pfet_01v8_hvt ad=0.14 pd=1.28 as=0.14 ps=1.28 w=1 l=0.15
X198 a_17121_4943# ts.ts_core.dac_vout_ana_ ts.ts_core.dac_vout_ana_ VGND sky130_fd_pr__nfet_01v8 ad=0.182 pd=1.86 as=0.0878 ps=0.92 w=0.65 l=0.15
X199 a_16591_10645# a_16403_10383# VPWR VPWR sky130_fd_pr__pfet_01v8_hvt ad=0.127 pd=1.21 as=0.127 ps=1.21 w=0.94 l=0.15
X200 VGND a_8632_16599# _214_ VGND sky130_fd_pr__nfet_01v8 ad=0.113 pd=1.04 as=0.169 ps=1.82 w=0.65 l=0.15
X201 a_13741_5487# ts.ts_core.dac.parallel_cells\[2\].vdac_batch.npu_pd a_13326_5719# VPWR sky130_fd_pr__pfet_01v8_hvt ad=0.105 pd=1.21 as=0.235 ps=1.47 w=1 l=0.15
X202 VPWR a_8459_17759# a_8446_17455# VPWR sky130_fd_pr__pfet_01v8_hvt ad=0.0819 pd=0.81 as=0.0567 ps=0.69 w=0.42 l=0.15
X203 VPWR a_7079_9055# a_7066_8751# VPWR sky130_fd_pr__pfet_01v8_hvt ad=0.0819 pd=0.81 as=0.0567 ps=0.69 w=0.42 l=0.15
X204 _019_ _138_ VGND VGND sky130_fd_pr__nfet_01v8 ad=0.0878 pd=0.92 as=0.169 ps=1.82 w=0.65 l=0.15
X205 a_1479_8751# net16 VPWR VPWR sky130_fd_pr__pfet_01v8_hvt ad=0.109 pd=1.36 as=0.0703 ps=0.755 w=0.42 l=0.15
X206 a_18243_7983# ts.ts_core.dac.parallel_cells\[4\].vdac_batch.npu_pd _096_ VGND sky130_fd_pr__nfet_01v8 ad=0.27 pd=1.48 as=0.0878 ps=0.92 w=0.65 l=0.15
X207 a_3517_12809# net62 VPWR VPWR sky130_fd_pr__pfet_01v8_hvt ad=0.162 pd=1.33 as=0.26 ps=2.52 w=1 l=0.15
X208 a_1371_14735# a_855_14735# a_1276_14735# VGND sky130_fd_pr__nfet_01v8 ad=0.0594 pd=0.69 as=0.066 ps=0.745 w=0.36 l=0.15
X209 VGND a_17332_3829# net67 VGND sky130_fd_pr__nfet_01v8 ad=0.0588 pd=0.7 as=0.0588 ps=0.7 w=0.42 l=0.15
X210 VPWR clknet_2_0__leaf_clk net52 VPWR sky130_fd_pr__pfet_01v8_hvt ad=0.26 pd=2.52 as=0.135 ps=1.27 w=1 l=0.15
X211 VPWR clknet_0_clk a_4513_13621# VPWR sky130_fd_pr__pfet_01v8_hvt ad=0.265 pd=2.53 as=0.14 ps=1.28 w=1 l=0.15
X212 VGND VPWR VGND VGND sky130_fd_pr__nfet_01v8 ad=0.143 pd=1.62 as=0 ps=0 w=0.55 l=4.73
X213 VGND VPWR VGND VGND sky130_fd_pr__nfet_01v8 ad=0.143 pd=1.62 as=0 ps=0 w=0.55 l=0.59
X214 a_9500_12015# _051_ a_9112_11989# VPWR sky130_fd_pr__pfet_01v8_hvt ad=0.135 pd=1.27 as=0.135 ps=1.27 w=1 l=0.15
X215 VPWR VGND VPWR VPWR sky130_fd_pr__pfet_01v8_hvt ad=0.226 pd=2.26 as=0 ps=0 w=0.87 l=1.05
X216 VPWR VGND VPWR VPWR sky130_fd_pr__pfet_01v8_hvt ad=0.226 pd=2.26 as=0 ps=0 w=0.87 l=4.73
X217 a_9353_12809# net8 a_9524_12559# VPWR sky130_fd_pr__pfet_01v8_hvt ad=0.26 pd=2.52 as=0.135 ps=1.27 w=1 l=0.15
R2 VGND uio_out[3] sky130_fd_pr__res_generic_po w=0.48 l=0.045
X218 a_15212_2767# ts.ts_core.dac.parallel_cells\[2\].vdac_batch.en_vref VGND VGND sky130_fd_pr__nfet_01v8 ad=0.0878 pd=0.92 as=0.0878 ps=0.92 w=0.65 l=0.15
X219 a_6541_17999# a_6375_17999# VPWR VPWR sky130_fd_pr__pfet_01v8_hvt ad=0.166 pd=1.8 as=0.0864 ps=0.91 w=0.64 l=0.15
X220 a_16477_12559# ts.ts_core.dac_vout_ana_ ts.ts_core.dac_vout_ana_ VGND sky130_fd_pr__nfet_01v8 ad=0.182 pd=1.86 as=0.0878 ps=0.92 w=0.65 l=0.15
X221 VPWR _216_ a_10975_17455# VPWR sky130_fd_pr__pfet_01v8_hvt ad=0.115 pd=1.08 as=0.205 ps=2.1 w=0.79 l=0.15
X222 a_15741_3855# ts.ts_core.dac_vout_ana_ ts.ts_core.dac_vout_ana_ VGND sky130_fd_pr__nfet_01v8 ad=0.0878 pd=0.92 as=0.0878 ps=0.92 w=0.65 l=0.15
X223 a_8695_3553# clknet_2_1__leaf_clk VPWR VPWR sky130_fd_pr__pfet_01v8_hvt ad=0.166 pd=1.8 as=0.0864 ps=0.91 w=0.64 l=0.15
X224 VGND _184_ a_6457_16911# VGND sky130_fd_pr__nfet_01v8 ad=0.169 pd=1.82 as=0.0878 ps=0.92 w=0.65 l=0.15
X225 a_7088_4777# a_6173_4405# a_6741_4373# VGND sky130_fd_pr__nfet_01v8 ad=0.0711 pd=0.755 as=0.0999 ps=0.985 w=0.36 l=0.15
X226 _119_ a_11343_12809# VGND VGND sky130_fd_pr__nfet_01v8 ad=0.176 pd=1.84 as=0.102 ps=0.99 w=0.65 l=0.15
X227 a_14388_2223# a_15123_2197# VPWR VPWR sky130_fd_pr__pfet_01v8_hvt ad=0.127 pd=1.21 as=0.127 ps=1.21 w=0.94 l=0.15
X228 VPWR a_4986_7119# clknet_2_0__leaf_clk VPWR sky130_fd_pr__pfet_01v8_hvt ad=0.138 pd=1.27 as=0.14 ps=1.28 w=1 l=0.15
X229 ts.ts_core.i_precharge_n a_13705_6353# VGND VGND sky130_fd_pr__nfet_01v8 ad=0.169 pd=1.82 as=0.0986 ps=0.98 w=0.65 l=0.15
X230 a_12597_7663# _122_ VGND VGND sky130_fd_pr__nfet_01v8 ad=0.107 pd=0.98 as=0.208 ps=1.94 w=0.65 l=0.15
X231 a_14571_11623# net69 VPWR VPWR sky130_fd_pr__pfet_01v8_hvt ad=0.26 pd=2.52 as=0.26 ps=2.52 w=1 l=0.15
X232 a_10401_4777# a_9411_4405# a_10275_4399# VGND sky130_fd_pr__nfet_01v8 ad=0.066 pd=0.745 as=0.0684 ps=0.74 w=0.36 l=0.15
X233 a_15465_13647# ts.ts_core.dac_vout_ana_ ts.ts_core.dac_vout_ana_ VGND sky130_fd_pr__nfet_01v8 ad=0.0878 pd=0.92 as=0.0878 ps=0.92 w=0.65 l=0.15
X234 a_12507_17759# net19 VPWR VPWR sky130_fd_pr__pfet_01v8_hvt ad=0.0567 pd=0.69 as=0.0819 ps=0.81 w=0.42 l=0.15
X235 a_2131_14511# ts.ts_ctrl.temp_ctr\[9\] _175_ VGND sky130_fd_pr__nfet_01v8 ad=0.0959 pd=0.945 as=0.091 ps=0.93 w=0.65 l=0.15
X236 VPWR ts.ts_ctrl.temp_ctr\[19\] _200_ VPWR sky130_fd_pr__pfet_01v8_hvt ad=0.26 pd=2.52 as=0.135 ps=1.27 w=1 l=0.15
X237 a_10068_13423# net8 VGND VGND sky130_fd_pr__nfet_01v8 ad=0.0878 pd=0.92 as=0.114 ps=1 w=0.65 l=0.15
X238 VGND VPWR VGND VGND sky130_fd_pr__nfet_01v8 ad=0.143 pd=1.62 as=0 ps=0 w=0.55 l=4.73
X239 a_6461_591# ts.ts_core.dcdel_capnode_ana_ VGND VGND sky130_fd_pr__nfet_01v8 ad=0.0878 pd=0.92 as=0.169 ps=1.82 w=0.65 l=0.15
X240 a_3601_3855# net56 VGND VGND sky130_fd_pr__nfet_01v8 ad=0.0813 pd=0.83 as=0.109 ps=1.36 w=0.42 l=0.15
X241 ts.ts_core.dac_vout_ana_ ts.ts_core.dac_vout_ana_ a_17029_14735# VGND sky130_fd_pr__nfet_01v8 ad=0.0878 pd=0.92 as=0.169 ps=1.82 w=0.65 l=0.15
X242 ts.ts_core.dac_vout_ana_ ts.ts_core.dac.parallel_cells\[2\].vdac_batch.npu_pd a_14296_4399# VPWR sky130_fd_pr__pfet_01v8_hvt ad=0.135 pd=1.27 as=0.135 ps=1.27 w=1 l=0.15
X243 a_15321_7663# _061_ ts.ts_core.dac.parallel_cells\[4\].vdac_batch.npu_pd VPWR sky130_fd_pr__pfet_01v8_hvt ad=0.14 pd=1.28 as=0.14 ps=1.28 w=1 l=0.15
X244 a_8491_7663# _090_ a_8573_7983# VGND sky130_fd_pr__nfet_01v8 ad=0.169 pd=1.82 as=0.0747 ps=0.88 w=0.65 l=0.15