* NGSPICE file created from tt_um_argunda_tiny_opamp.ext - technology: sky130A

.subckt sky130_fd_pr__res_xhigh_po_0p35_5BGKUX a_n35_n696# a_n165_n826# a_n35_264#
X0 a_n35_264# a_n35_n696# a_n165_n826# sky130_fd_pr__res_xhigh_po_0p35 l=2.8
.ends

.subckt sky130_fd_pr__nfet_01v8_VWWVRL a_n29_n100# a_887_n100# a_429_n100# a_n887_n188#
+ a_n1047_n274# a_n429_n188# a_487_n188# a_n945_n100# a_29_n188# a_n487_n100#
X0 a_887_n100# a_487_n188# a_429_n100# a_n1047_n274# sky130_fd_pr__nfet_01v8 ad=0.29 pd=2.58 as=0.145 ps=1.29 w=1 l=2
**devattr s=5800,258 d=11600,516
X1 a_429_n100# a_29_n188# a_n29_n100# a_n1047_n274# sky130_fd_pr__nfet_01v8 ad=0.145 pd=1.29 as=0.145 ps=1.29 w=1 l=2
**devattr s=5800,258 d=5800,258
X2 a_n487_n100# a_n887_n188# a_n945_n100# a_n1047_n274# sky130_fd_pr__nfet_01v8 ad=0.145 pd=1.29 as=0.29 ps=2.58 w=1 l=2
**devattr s=11600,516 d=5800,258
X3 a_n29_n100# a_n429_n188# a_n487_n100# a_n1047_n274# sky130_fd_pr__nfet_01v8 ad=0.145 pd=1.29 as=0.145 ps=1.29 w=1 l=2
**devattr s=5800,258 d=5800,258
.ends

.subckt vbias_resistor VDD VBIAS VSS
XXR1 VBIAS VSS VDD sky130_fd_pr__res_xhigh_po_0p35_5BGKUX
XXM6 VSS VSS VBIAS VBIAS VSS VBIAS VBIAS VSS VBIAS VBIAS sky130_fd_pr__nfet_01v8_VWWVRL
.ends

.subckt sky130_fd_pr__nfet_01v8_lvt_8TELWR a_n108_n250# a_n50_n338# a_n210_n424# a_50_n250#
X0 a_50_n250# a_n50_n338# a_n108_n250# a_n210_n424# sky130_fd_pr__nfet_01v8_lvt ad=0.725 pd=5.58 as=0.725 ps=5.58 w=2.5 l=0.5
**devattr s=29000,1116 d=29000,1116
.ends

.subckt sky130_fd_pr__pfet_01v8_lvt_GW6ZVV a_n887_n197# a_1345_n100# a_n29_n100# a_945_n197#
+ a_887_n100# a_n429_n197# a_487_n197# a_429_n100# a_29_n197# a_n1403_n100# w_n1541_n319#
+ a_n1345_n197# a_n945_n100# a_n487_n100#
X0 a_1345_n100# a_945_n197# a_887_n100# w_n1541_n319# sky130_fd_pr__pfet_01v8_lvt ad=0.29 pd=2.58 as=0.145 ps=1.29 w=1 l=2
**devattr s=5800,258 d=11600,516
X1 a_429_n100# a_29_n197# a_n29_n100# w_n1541_n319# sky130_fd_pr__pfet_01v8_lvt ad=0.145 pd=1.29 as=0.145 ps=1.29 w=1 l=2
**devattr s=5800,258 d=5800,258
X2 a_n487_n100# a_n887_n197# a_n945_n100# w_n1541_n319# sky130_fd_pr__pfet_01v8_lvt ad=0.145 pd=1.29 as=0.145 ps=1.29 w=1 l=2
**devattr s=5800,258 d=5800,258
X3 a_n29_n100# a_n429_n197# a_n487_n100# w_n1541_n319# sky130_fd_pr__pfet_01v8_lvt ad=0.145 pd=1.29 as=0.145 ps=1.29 w=1 l=2
**devattr s=5800,258 d=5800,258
X4 a_n945_n100# a_n1345_n197# a_n1403_n100# w_n1541_n319# sky130_fd_pr__pfet_01v8_lvt ad=0.145 pd=1.29 as=0.29 ps=2.58 w=1 l=2
**devattr s=11600,516 d=5800,258
X5 a_887_n100# a_487_n197# a_429_n100# w_n1541_n319# sky130_fd_pr__pfet_01v8_lvt ad=0.145 pd=1.29 as=0.145 ps=1.29 w=1 l=2
**devattr s=5800,258 d=5800,258
.ends

.subckt sky130_fd_pr__nfet_01v8_WWWVRA a_n258_n100# a_1574_n100# a_1116_n100# a_n200_n188#
+ a_658_n100# a_n1574_n188# a_n1116_n188# a_n1734_n274# a_n1632_n100# a_1174_n188#
+ a_n658_n188# a_n1174_n100# a_716_n188# a_258_n188# a_200_n100# a_n716_n100#
X0 a_200_n100# a_n200_n188# a_n258_n100# a_n1734_n274# sky130_fd_pr__nfet_01v8 ad=0.145 pd=1.29 as=0.145 ps=1.29 w=1 l=2
**devattr s=5800,258 d=5800,258
X1 a_n1174_n100# a_n1574_n188# a_n1632_n100# a_n1734_n274# sky130_fd_pr__nfet_01v8 ad=0.145 pd=1.29 as=0.29 ps=2.58 w=1 l=2
**devattr s=11600,516 d=5800,258
X2 a_n258_n100# a_n658_n188# a_n716_n100# a_n1734_n274# sky130_fd_pr__nfet_01v8 ad=0.145 pd=1.29 as=0.145 ps=1.29 w=1 l=2
**devattr s=5800,258 d=5800,258
X3 a_n716_n100# a_n1116_n188# a_n1174_n100# a_n1734_n274# sky130_fd_pr__nfet_01v8 ad=0.145 pd=1.29 as=0.145 ps=1.29 w=1 l=2
**devattr s=5800,258 d=5800,258
X4 a_658_n100# a_258_n188# a_200_n100# a_n1734_n274# sky130_fd_pr__nfet_01v8 ad=0.145 pd=1.29 as=0.145 ps=1.29 w=1 l=2
**devattr s=5800,258 d=5800,258
X5 a_1574_n100# a_1174_n188# a_1116_n100# a_n1734_n274# sky130_fd_pr__nfet_01v8 ad=0.29 pd=2.58 as=0.145 ps=1.29 w=1 l=2
**devattr s=5800,258 d=11600,516
X6 a_1116_n100# a_716_n188# a_658_n100# a_n1734_n274# sky130_fd_pr__nfet_01v8 ad=0.145 pd=1.29 as=0.145 ps=1.29 w=1 l=2
**devattr s=5800,258 d=5800,258
.ends

.subckt sky130_fd_pr__pfet_01v8_lvt_ER3WAW a_1293_n197# a_n761_n197# a_1235_n100#
+ a_n1551_n197# a_761_n100# a_n29_n100# a_1393_n100# a_1451_n197# a_n187_n100# a_1551_n100#
+ a_n819_n100# a_n345_n100# a_n1609_n100# a_29_n197# a_n977_n100# a_n1135_n100# a_n129_n197#
+ a_187_n197# w_n1747_n319# a_129_n100# a_n503_n100# a_n1293_n100# a_n287_n197# a_819_n197#
+ a_n661_n100# a_345_n197# a_n1077_n197# a_287_n100# a_n1451_n100# a_n919_n197# a_977_n197#
+ a_n445_n197# a_919_n100# a_503_n197# a_n1235_n197# a_445_n100# a_1077_n100# a_1135_n197#
+ a_n603_n197# a_n1393_n197# a_661_n197# a_603_n100#
X0 a_n1293_n100# a_n1393_n197# a_n1451_n100# w_n1747_n319# sky130_fd_pr__pfet_01v8_lvt ad=0.145 pd=1.29 as=0.145 ps=1.29 w=1 l=0.5
**devattr s=5800,258 d=5800,258
X1 a_n1451_n100# a_n1551_n197# a_n1609_n100# w_n1747_n319# sky130_fd_pr__pfet_01v8_lvt ad=0.145 pd=1.29 as=0.29 ps=2.58 w=1 l=0.5
**devattr s=11600,516 d=5800,258
X2 a_n977_n100# a_n1077_n197# a_n1135_n100# w_n1747_n319# sky130_fd_pr__pfet_01v8_lvt ad=0.145 pd=1.29 as=0.145 ps=1.29 w=1 l=0.5
**devattr s=5800,258 d=5800,258
X3 a_n1135_n100# a_n1235_n197# a_n1293_n100# w_n1747_n319# sky130_fd_pr__pfet_01v8_lvt ad=0.145 pd=1.29 as=0.145 ps=1.29 w=1 l=0.5
**devattr s=5800,258 d=5800,258
X4 a_n661_n100# a_n761_n197# a_n819_n100# w_n1747_n319# sky130_fd_pr__pfet_01v8_lvt ad=0.145 pd=1.29 as=0.145 ps=1.29 w=1 l=0.5
**devattr s=5800,258 d=5800,258
X5 a_129_n100# a_29_n197# a_n29_n100# w_n1747_n319# sky130_fd_pr__pfet_01v8_lvt ad=0.145 pd=1.29 as=0.145 ps=1.29 w=1 l=0.5
**devattr s=5800,258 d=5800,258
X6 a_n187_n100# a_n287_n197# a_n345_n100# w_n1747_n319# sky130_fd_pr__pfet_01v8_lvt ad=0.145 pd=1.29 as=0.145 ps=1.29 w=1 l=0.5
**devattr s=5800,258 d=5800,258
X7 a_n819_n100# a_n919_n197# a_n977_n100# w_n1747_n319# sky130_fd_pr__pfet_01v8_lvt ad=0.145 pd=1.29 as=0.145 ps=1.29 w=1 l=0.5
**devattr s=5800,258 d=5800,258
X8 a_n345_n100# a_n445_n197# a_n503_n100# w_n1747_n319# sky130_fd_pr__pfet_01v8_lvt ad=0.145 pd=1.29 as=0.145 ps=1.29 w=1 l=0.5
**devattr s=5800,258 d=5800,258
X9 a_n503_n100# a_n603_n197# a_n661_n100# w_n1747_n319# sky130_fd_pr__pfet_01v8_lvt ad=0.145 pd=1.29 as=0.145 ps=1.29 w=1 l=0.5
**devattr s=5800,258 d=5800,258
X10 a_n29_n100# a_n129_n197# a_n187_n100# w_n1747_n319# sky130_fd_pr__pfet_01v8_lvt ad=0.145 pd=1.29 as=0.145 ps=1.29 w=1 l=0.5
**devattr s=5800,258 d=5800,258
X11 a_1393_n100# a_1293_n197# a_1235_n100# w_n1747_n319# sky130_fd_pr__pfet_01v8_lvt ad=0.145 pd=1.29 as=0.145 ps=1.29 w=1 l=0.5
**devattr s=5800,258 d=5800,258
X12 a_1077_n100# a_977_n197# a_919_n100# w_n1747_n319# sky130_fd_pr__pfet_01v8_lvt ad=0.145 pd=1.29 as=0.145 ps=1.29 w=1 l=0.5
**devattr s=5800,258 d=5800,258
X13 a_1551_n100# a_1451_n197# a_1393_n100# w_n1747_n319# sky130_fd_pr__pfet_01v8_lvt ad=0.29 pd=2.58 as=0.145 ps=1.29 w=1 l=0.5
**devattr s=5800,258 d=11600,516
X14 a_761_n100# a_661_n197# a_603_n100# w_n1747_n319# sky130_fd_pr__pfet_01v8_lvt ad=0.145 pd=1.29 as=0.145 ps=1.29 w=1 l=0.5
**devattr s=5800,258 d=5800,258
X15 a_287_n100# a_187_n197# a_129_n100# w_n1747_n319# sky130_fd_pr__pfet_01v8_lvt ad=0.145 pd=1.29 as=0.145 ps=1.29 w=1 l=0.5
**devattr s=5800,258 d=5800,258
X16 a_1235_n100# a_1135_n197# a_1077_n100# w_n1747_n319# sky130_fd_pr__pfet_01v8_lvt ad=0.145 pd=1.29 as=0.145 ps=1.29 w=1 l=0.5
**devattr s=5800,258 d=5800,258
X17 a_445_n100# a_345_n197# a_287_n100# w_n1747_n319# sky130_fd_pr__pfet_01v8_lvt ad=0.145 pd=1.29 as=0.145 ps=1.29 w=1 l=0.5
**devattr s=5800,258 d=5800,258
X18 a_919_n100# a_819_n197# a_761_n100# w_n1747_n319# sky130_fd_pr__pfet_01v8_lvt ad=0.145 pd=1.29 as=0.145 ps=1.29 w=1 l=0.5
**devattr s=5800,258 d=5800,258
X19 a_603_n100# a_503_n197# a_445_n100# w_n1747_n319# sky130_fd_pr__pfet_01v8_lvt ad=0.145 pd=1.29 as=0.145 ps=1.29 w=1 l=0.5
**devattr s=5800,258 d=5800,258
.ends

.subckt opamp VBIAS VDD MINUS PLUS VOUT VSS
XXM1 V1 PLUS VSS m1_2578_n2492# sky130_fd_pr__nfet_01v8_lvt_8TELWR
XXM2 V2 MINUS VSS m1_2578_n2492# sky130_fd_pr__nfet_01v8_lvt_8TELWR
XXM3 VSS VSS m1_2578_n2492# VBIAS VSS VBIAS VBIAS VSS VBIAS m1_2578_n2492# sky130_fd_pr__nfet_01v8_VWWVRL
XXM4 V2 VDD V2 V2 V2 V2 V2 VDD V2 VDD VDD V2 V2 VDD sky130_fd_pr__pfet_01v8_lvt_GW6ZVV
XXM5 V2 VDD V1 V2 V1 V2 V2 VDD V2 VDD VDD V2 V1 VDD sky130_fd_pr__pfet_01v8_lvt_GW6ZVV
XXM7 VSS VSS VOUT VBIAS VSS VBIAS VBIAS VSS VOUT VBIAS VBIAS VSS VBIAS VBIAS VOUT
+ VOUT sky130_fd_pr__nfet_01v8_WWWVRA
XXM8 V1 V1 VOUT V1 VDD VOUT VDD V1 VDD VOUT VDD VOUT VOUT V1 VOUT VDD V1 V1 VDD VDD
+ VDD VOUT V1 V1 VOUT V1 V1 VOUT VDD V1 V1 V1 VOUT V1 V1 VDD VDD V1 V1 V1 V1 VOUT
+ sky130_fd_pr__pfet_01v8_lvt_ER3WAW
.ends

.subckt sky130_ef_sc_hd__decap_12 VGND VPWR VPB VNB
X0 VPWR VGND VPWR VPB sky130_fd_pr__pfet_01v8_hvt ad=0.2262 pd=2.26 as=0.2262 ps=2.26 w=0.87 l=4.73
**devattr d=9048,452
X1 VGND VPWR VGND VNB sky130_fd_pr__nfet_01v8 ad=0.143 pd=1.62 as=0.143 ps=1.62 w=0.55 l=4.73
**devattr d=5720,324
.ends

.subckt sky130_fd_sc_hd__decap_8 VPWR VGND VPB VNB
X0 VPWR VGND VPWR VPB sky130_fd_pr__pfet_01v8_hvt ad=0.2262 pd=2.26 as=0.2262 ps=2.26 w=0.87 l=2.89
**devattr d=9048,452
X1 VGND VPWR VGND VNB sky130_fd_pr__nfet_01v8 ad=0.143 pd=1.62 as=0.143 ps=1.62 w=0.55 l=2.89
**devattr d=5720,324
.ends

.subckt sky130_fd_sc_hd__decap_4 VGND VPWR VPB VNB
X0 VPWR VGND VPWR VPB sky130_fd_pr__pfet_01v8_hvt ad=0.2262 pd=2.26 as=0.2262 ps=2.26 w=0.87 l=1.05
**devattr d=9048,452
X1 VGND VPWR VGND VNB sky130_fd_pr__nfet_01v8 ad=0.143 pd=1.62 as=0.143 ps=1.62 w=0.55 l=1.05
**devattr d=5720,324
.ends

.subckt sky130_fd_sc_hd__dfxtp_1 Q CLK D VPB VNB VPWR VGND
X0 Q a_1059_315# VGND VNB sky130_fd_pr__nfet_01v8 ad=0.169 pd=1.82 as=0.12054 ps=1.304827 w=0.65 l=0.15
**devattr s=3510,184 d=6760,364
X1 a_891_413# a_193_47# a_634_159# VNB sky130_fd_pr__nfet_01v8 ad=0.0684 pd=0.74 as=0.071208 ps=0.7164 w=0.36 l=0.15
**devattr s=3956,199 d=2736,148
X2 a_561_413# a_27_47# a_466_413# VPB sky130_fd_pr__pfet_01v8_hvt ad=0.07665 pd=0.785 as=0.06825 ps=0.745 w=0.42 l=0.15
**devattr s=2730,149 d=3066,157
X3 VPWR CLK a_27_47# VPB sky130_fd_pr__pfet_01v8_hvt ad=0.12353 pd=1.162647 as=0.1664 ps=1.8 w=0.64 l=0.15
**devattr s=6656,360 d=3456,182
X4 Q a_1059_315# VPWR VPB sky130_fd_pr__pfet_01v8_hvt ad=0.26 pd=2.52 as=0.193015 ps=1.816635 w=1 l=0.15
**devattr s=5400,254 d=10400,504
X5 a_381_47# D VPWR VPB sky130_fd_pr__pfet_01v8_hvt ad=0.05775 pd=0.695 as=0.081066 ps=0.762987 w=0.42 l=0.15
**devattr s=4368,272 d=2310,139
X6 VGND a_634_159# a_592_47# VNB sky130_fd_pr__nfet_01v8 ad=0.077887 pd=0.843119 as=0.074954 ps=0.823846 w=0.42 l=0.15
**devattr s=2784,153 d=4838,217
X7 VPWR a_891_413# a_1059_315# VPB sky130_fd_pr__pfet_01v8_hvt ad=0.193015 pd=1.816635 as=0.27 ps=2.54 w=1 l=0.15
**devattr s=10800,508 d=5400,254
X8 a_466_413# a_193_47# a_381_47# VPB sky130_fd_pr__pfet_01v8_hvt ad=0.06825 pd=0.745 as=0.05775 ps=0.695 w=0.42 l=0.15
**devattr s=2310,139 d=2730,149
X9 VPWR a_634_159# a_561_413# VPB sky130_fd_pr__pfet_01v8_hvt ad=0.081066 pd=0.762987 as=0.07665 ps=0.785 w=0.42 l=0.15
**devattr s=3066,157 d=7155,252
X10 a_634_159# a_466_413# VGND VNB sky130_fd_pr__nfet_01v8 ad=0.126592 pd=1.2736 as=0.118685 ps=1.284752 w=0.64 l=0.15
**devattr s=4838,217 d=3956,199
X11 a_634_159# a_466_413# VPWR VPB sky130_fd_pr__pfet_01v8_hvt ad=0.140385 pd=1.378205 as=0.144761 ps=1.362476 w=0.75 l=0.15
**devattr s=7155,252 d=4380,215
X12 a_975_413# a_193_47# a_891_413# VPB sky130_fd_pr__pfet_01v8_hvt ad=0.0882 pd=0.84 as=0.0567 ps=0.69 w=0.42 l=0.15
**devattr s=2268,138 d=3528,168
X13 VGND a_1059_315# a_1017_47# VNB sky130_fd_pr__nfet_01v8 ad=0.077887 pd=0.843119 as=0.071077 ps=0.802308 w=0.42 l=0.15
**devattr s=2640,149 d=4368,272
X14 a_193_47# a_27_47# VGND VNB sky130_fd_pr__nfet_01v8 ad=0.1092 pd=1.36 as=0.077887 ps=0.843119 w=0.42 l=0.15
**devattr s=2268,138 d=4368,272
X15 a_891_413# a_27_47# a_634_159# VPB sky130_fd_pr__pfet_01v8_hvt ad=0.0567 pd=0.69 as=0.078615 ps=0.771795 w=0.42 l=0.15
**devattr s=4380,215 d=2268,138
X16 a_592_47# a_193_47# a_466_413# VNB sky130_fd_pr__nfet_01v8 ad=0.064246 pd=0.706154 as=0.0621 ps=0.705 w=0.36 l=0.15
**devattr s=2484,141 d=2784,153
X17 a_1017_47# a_27_47# a_891_413# VNB sky130_fd_pr__nfet_01v8 ad=0.060923 pd=0.687692 as=0.0684 ps=0.74 w=0.36 l=0.15
**devattr s=2736,148 d=2640,149
X18 VPWR a_1059_315# a_975_413# VPB sky130_fd_pr__pfet_01v8_hvt ad=0.081066 pd=0.762987 as=0.0882 ps=0.84 w=0.42 l=0.15
**devattr s=3528,168 d=4452,274
X19 a_466_413# a_27_47# a_381_47# VNB sky130_fd_pr__nfet_01v8 ad=0.0621 pd=0.705 as=0.075046 ps=0.766154 w=0.36 l=0.15
**devattr s=3252,166 d=2484,141
X20 a_193_47# a_27_47# VPWR VPB sky130_fd_pr__pfet_01v8_hvt ad=0.1664 pd=1.8 as=0.12353 ps=1.162647 w=0.64 l=0.15
**devattr s=3456,182 d=6656,360
X21 VGND a_891_413# a_1059_315# VNB sky130_fd_pr__nfet_01v8 ad=0.12054 pd=1.304827 as=0.169 ps=1.82 w=0.65 l=0.15
**devattr s=6760,364 d=3510,184
X22 a_381_47# D VGND VNB sky130_fd_pr__nfet_01v8 ad=0.087554 pd=0.893846 as=0.077887 ps=0.843119 w=0.42 l=0.15
**devattr s=4368,272 d=3252,166
X23 VGND CLK a_27_47# VNB sky130_fd_pr__nfet_01v8 ad=0.077887 pd=0.843119 as=0.1092 ps=1.36 w=0.42 l=0.15
**devattr s=4368,272 d=2268,138
.ends

.subckt sky130_fd_sc_hd__decap_6 VPWR VGND VPB VNB
X0 VPWR VGND VPWR VPB sky130_fd_pr__pfet_01v8_hvt ad=0.2262 pd=2.26 as=0.2262 ps=2.26 w=0.87 l=1.97
**devattr d=9048,452
X1 VGND VPWR VGND VNB sky130_fd_pr__nfet_01v8 ad=0.143 pd=1.62 as=0.143 ps=1.62 w=0.55 l=1.97
**devattr d=5720,324
.ends

.subckt sky130_fd_sc_hd__o21a_1 VPB VNB VGND VPWR A1 A2 B1 X
X0 VPWR A1 a_382_297# VPB sky130_fd_pr__pfet_01v8_hvt ad=0.305 pd=1.943333 as=0.1525 ps=1.305 w=1 l=0.15
**devattr s=6100,261 d=10400,504
X1 a_297_47# B1 a_79_21# VNB sky130_fd_pr__nfet_01v8 ad=0.1235 pd=1.246667 as=0.169 ps=1.82 w=0.65 l=0.15
**devattr s=6760,364 d=4030,192
X2 a_297_47# A1 VGND VNB sky130_fd_pr__nfet_01v8 ad=0.1235 pd=1.246667 as=0.114833 ps=1.22 w=0.65 l=0.15
**devattr s=3510,184 d=6760,364
X3 VGND A2 a_297_47# VNB sky130_fd_pr__nfet_01v8 ad=0.114833 pd=1.22 as=0.1235 ps=1.246667 w=0.65 l=0.15
**devattr s=4030,192 d=3510,184
X4 VPWR a_79_21# X VPB sky130_fd_pr__pfet_01v8_hvt ad=0.305 pd=1.943333 as=0.28 ps=2.56 w=1 l=0.15
**devattr s=11200,512 d=13100,331
X5 a_79_21# B1 VPWR VPB sky130_fd_pr__pfet_01v8_hvt ad=0.195 pd=1.39 as=0.305 ps=1.943333 w=1 l=0.15
**devattr s=13100,331 d=7800,278
X6 a_382_297# A2 a_79_21# VPB sky130_fd_pr__pfet_01v8_hvt ad=0.1525 pd=1.305 as=0.195 ps=1.39 w=1 l=0.15
**devattr s=7800,278 d=6100,261
X7 VGND a_79_21# X VNB sky130_fd_pr__nfet_01v8 ad=0.114833 pd=1.22 as=0.169 ps=1.82 w=0.65 l=0.15
**devattr s=6760,364 d=6760,364
.ends

.subckt sky130_fd_sc_hd__and3_1 VGND VPWR X B A C VPB VNB
X0 VPWR A a_27_47# VPB sky130_fd_pr__pfet_01v8_hvt ad=0.073937 pd=0.752655 as=0.0805 ps=0.943333 w=0.42 l=0.15
**devattr s=4368,272 d=2268,138
X1 VPWR C a_27_47# VPB sky130_fd_pr__pfet_01v8_hvt ad=0.073937 pd=0.752655 as=0.0805 ps=0.943333 w=0.42 l=0.15
**devattr s=2646,147 d=5689,267
X2 a_181_47# B a_109_47# VNB sky130_fd_pr__nfet_01v8 ad=0.0441 pd=0.63 as=0.0441 ps=0.63 w=0.42 l=0.15
**devattr s=1764,126 d=1764,126
X3 VGND C a_181_47# VNB sky130_fd_pr__nfet_01v8 ad=0.103351 pd=0.894953 as=0.0441 ps=0.63 w=0.42 l=0.15
**devattr s=1764,126 d=5266,228
X4 a_27_47# B VPWR VPB sky130_fd_pr__pfet_01v8_hvt ad=0.0805 pd=0.943333 as=0.073937 ps=0.752655 w=0.42 l=0.15
**devattr s=2268,138 d=2646,147
X5 X a_27_47# VPWR VPB sky130_fd_pr__pfet_01v8_hvt ad=0.26 pd=2.52 as=0.17604 ps=1.792035 w=1 l=0.15
**devattr s=5689,267 d=10400,504
X6 X a_27_47# VGND VNB sky130_fd_pr__nfet_01v8 ad=0.169 pd=1.82 as=0.159949 ps=1.385047 w=0.65 l=0.15
**devattr s=5266,228 d=6760,364
X7 a_109_47# A a_27_47# VNB sky130_fd_pr__nfet_01v8 ad=0.0441 pd=0.63 as=0.1092 ps=1.36 w=0.42 l=0.15
**devattr s=4368,272 d=1764,126
.ends

.subckt sky130_fd_sc_hd__and4b_1 VGND VPWR C A_N X D B VPB VNB
X0 a_297_47# a_27_47# a_193_413# VNB sky130_fd_pr__nfet_01v8 ad=0.0441 pd=0.63 as=0.1092 ps=1.36 w=0.42 l=0.15
**devattr s=4368,272 d=1764,126
X1 a_369_47# B a_297_47# VNB sky130_fd_pr__nfet_01v8 ad=0.0735 pd=0.77 as=0.0441 ps=0.63 w=0.42 l=0.15
**devattr s=1764,126 d=2940,154
X2 VPWR D a_193_413# VPB sky130_fd_pr__pfet_01v8_hvt ad=0.088214 pd=0.825097 as=0.082425 ps=0.8125 w=0.42 l=0.15
**devattr s=2646,147 d=5630,265
X3 X a_193_413# VGND VNB sky130_fd_pr__nfet_01v8 ad=0.169 pd=1.82 as=0.137852 ps=1.465772 w=0.65 l=0.15
**devattr s=4136,200 d=6760,364
X4 VPWR A_N a_27_47# VPB sky130_fd_pr__pfet_01v8_hvt ad=0.088214 pd=0.825097 as=0.1092 ps=1.36 w=0.42 l=0.15
**devattr s=4368,272 d=2268,138
X5 VGND D a_469_47# VNB sky130_fd_pr__nfet_01v8 ad=0.089074 pd=0.947114 as=0.0609 ps=0.71 w=0.42 l=0.15
**devattr s=2436,142 d=4136,200
X6 X a_193_413# VPWR VPB sky130_fd_pr__pfet_01v8_hvt ad=0.26 pd=2.52 as=0.210032 ps=1.964516 w=1 l=0.15
**devattr s=5630,265 d=10400,504
X7 VPWR B a_193_413# VPB sky130_fd_pr__pfet_01v8_hvt ad=0.088214 pd=0.825097 as=0.082425 ps=0.8125 w=0.42 l=0.15
**devattr s=3948,178 d=5124,206
X8 a_193_413# C VPWR VPB sky130_fd_pr__pfet_01v8_hvt ad=0.082425 pd=0.8125 as=0.088214 ps=0.825097 w=0.42 l=0.15
**devattr s=5124,206 d=2646,147
X9 a_193_413# a_27_47# VPWR VPB sky130_fd_pr__pfet_01v8_hvt ad=0.082425 pd=0.8125 as=0.088214 ps=0.825097 w=0.42 l=0.15
**devattr s=2268,138 d=3948,178
X10 a_469_47# C a_369_47# VNB sky130_fd_pr__nfet_01v8 ad=0.0609 pd=0.71 as=0.0735 ps=0.77 w=0.42 l=0.15
**devattr s=2940,154 d=2436,142
X11 VGND A_N a_27_47# VNB sky130_fd_pr__nfet_01v8 ad=0.089074 pd=0.947114 as=0.1092 ps=1.36 w=0.42 l=0.15
**devattr s=4368,272 d=4368,272
.ends

.subckt sky130_fd_sc_hd__clkbuf_1 VGND VPWR X A VPB VNB
X0 VPWR a_75_212# X VPB sky130_fd_pr__pfet_01v8_hvt ad=0.11455 pd=1.08 as=0.2054 ps=2.1 w=0.79 l=0.15
**devattr s=8216,420 d=4582,216
X1 a_75_212# A VGND VNB sky130_fd_pr__nfet_01v8 ad=0.1352 pd=1.56 as=0.0754 ps=0.81 w=0.52 l=0.15
**devattr s=3016,162 d=5408,312
X2 a_75_212# A VPWR VPB sky130_fd_pr__pfet_01v8_hvt ad=0.2054 pd=2.1 as=0.11455 ps=1.08 w=0.79 l=0.15
**devattr s=4582,216 d=8216,420
X3 VGND a_75_212# X VNB sky130_fd_pr__nfet_01v8 ad=0.0754 pd=0.81 as=0.1352 ps=1.56 w=0.52 l=0.15
**devattr s=5408,312 d=3016,162
.ends

.subckt sky130_fd_sc_hd__and2_1 VPWR VGND X B A VPB VNB
X0 VPWR B a_59_75# VPB sky130_fd_pr__pfet_01v8_hvt ad=0.102877 pd=0.95413 as=0.0567 ps=0.69 w=0.42 l=0.15
**devattr s=2268,138 d=6662,278
X1 X a_59_75# VPWR VPB sky130_fd_pr__pfet_01v8_hvt ad=0.475 pd=2.95 as=0.244946 ps=2.271739 w=1 l=0.15
**devattr s=6662,278 d=19000,590
X2 VGND B a_145_75# VNB sky130_fd_pr__nfet_01v8 ad=0.087768 pd=0.816449 as=0.0567 ps=0.69 w=0.42 l=0.15
**devattr s=2268,138 d=4472,208
X3 a_59_75# A VPWR VPB sky130_fd_pr__pfet_01v8_hvt ad=0.0567 pd=0.69 as=0.102877 ps=0.95413 w=0.42 l=0.15
**devattr s=4704,280 d=2268,138
X4 X a_59_75# VGND VNB sky130_fd_pr__nfet_01v8 ad=0.182 pd=1.86 as=0.135832 ps=1.263551 w=0.65 l=0.15
**devattr s=4472,208 d=7280,372
X5 a_145_75# A a_59_75# VNB sky130_fd_pr__nfet_01v8 ad=0.0567 pd=0.69 as=0.1176 ps=1.4 w=0.42 l=0.15
**devattr s=4704,280 d=2268,138
.ends

.subckt sky130_fd_sc_hd__decap_3 VPWR VGND VPB VNB
X0 VPWR VGND VPWR VPB sky130_fd_pr__pfet_01v8_hvt ad=0.2262 pd=2.26 as=0.2262 ps=2.26 w=0.87 l=0.59
**devattr d=9048,452
X1 VGND VPWR VGND VNB sky130_fd_pr__nfet_01v8 ad=0.143 pd=1.62 as=0.143 ps=1.62 w=0.55 l=0.59
**devattr d=5720,324
.ends

.subckt sky130_fd_sc_hd__a22o_1 VPWR VGND VPB VNB B1 A1 A2 X B2
X0 VPWR A2 a_109_297# VPB sky130_fd_pr__pfet_01v8_hvt ad=0.187633 pd=1.713333 as=0.1475 ps=1.295 w=1 l=0.15
**devattr s=6400,264 d=6200,262
X1 a_27_297# B1 a_109_47# VNB sky130_fd_pr__nfet_01v8 ad=0.169 pd=1.82 as=0.07475 ps=0.88 w=0.65 l=0.15
**devattr s=2990,176 d=6760,364
X2 VGND A2 a_373_47# VNB sky130_fd_pr__nfet_01v8 ad=0.1235 pd=1.246667 as=0.11375 ps=1 w=0.65 l=0.15
**devattr s=4550,200 d=4030,192
X3 X a_27_297# VPWR VPB sky130_fd_pr__pfet_01v8_hvt ad=0.26 pd=2.52 as=0.187633 ps=1.713333 w=1 l=0.15
**devattr s=6200,262 d=10400,504
X4 a_27_297# B1 a_109_297# VPB sky130_fd_pr__pfet_01v8_hvt ad=0.256425 pd=2.52 as=0.1475 ps=1.295 w=1 l=0.15
**devattr s=5400,254 d=10114,504
X5 a_109_297# A1 VPWR VPB sky130_fd_pr__pfet_01v8_hvt ad=0.1475 pd=1.295 as=0.187633 ps=1.713333 w=1 l=0.15
**devattr s=10116,504 d=6400,264
X6 a_373_47# A1 a_27_297# VNB sky130_fd_pr__nfet_01v8 ad=0.11375 pd=1 as=0.169 ps=1.82 w=0.65 l=0.15
**devattr s=6760,364 d=4550,200
X7 X a_27_297# VGND VNB sky130_fd_pr__nfet_01v8 ad=0.169 pd=1.82 as=0.1235 ps=1.246667 w=0.65 l=0.15
**devattr s=4030,192 d=6760,364
X8 a_109_297# B2 a_27_297# VPB sky130_fd_pr__pfet_01v8_hvt ad=0.1475 pd=1.295 as=0.256425 ps=2.52 w=1 l=0.15
**devattr s=10400,504 d=5400,254
X9 a_109_47# B2 VGND VNB sky130_fd_pr__nfet_01v8 ad=0.07475 pd=0.88 as=0.1235 ps=1.246667 w=0.65 l=0.15
**devattr s=6760,364 d=2990,176
.ends

.subckt sky130_fd_sc_hd__and2b_1 X A_N B VGND VPWR VPB VNB
X0 VPWR B a_207_413# VPB sky130_fd_pr__pfet_01v8_hvt ad=0.111244 pd=0.929204 as=0.0609 ps=0.71 w=0.42 l=0.15
**devattr s=2436,142 d=9116,348
X1 X a_207_413# VPWR VPB sky130_fd_pr__pfet_01v8_hvt ad=0.26 pd=2.52 as=0.264867 ps=2.212389 w=1 l=0.15
**devattr s=9116,348 d=10400,504
X2 a_297_47# a_27_413# a_207_413# VNB sky130_fd_pr__nfet_01v8 ad=0.0504 pd=0.66 as=0.1092 ps=1.36 w=0.42 l=0.15
**devattr s=4368,272 d=2016,132
X3 X a_207_413# VGND VNB sky130_fd_pr__nfet_01v8 ad=0.169 pd=1.82 as=0.13602 ps=1.457047 w=0.65 l=0.15
**devattr s=4052,198 d=6760,364
X4 a_207_413# a_27_413# VPWR VPB sky130_fd_pr__pfet_01v8_hvt ad=0.0609 pd=0.71 as=0.111244 ps=0.929204 w=0.42 l=0.15
**devattr s=2856,152 d=2436,142
X5 VPWR A_N a_27_413# VPB sky130_fd_pr__pfet_01v8_hvt ad=0.111244 pd=0.929204 as=0.1092 ps=1.36 w=0.42 l=0.15
**devattr s=4368,272 d=2856,152
X6 VGND B a_297_47# VNB sky130_fd_pr__nfet_01v8 ad=0.08789 pd=0.941476 as=0.0504 ps=0.66 w=0.42 l=0.15
**devattr s=2016,132 d=4052,198
X7 a_27_413# A_N VGND VNB sky130_fd_pr__nfet_01v8 ad=0.1092 pd=1.36 as=0.08789 ps=0.941476 w=0.42 l=0.15
**devattr s=4368,272 d=4368,272
.ends

.subckt sky130_fd_sc_hd__buf_2 VPWR VGND X A VPB VNB
X0 VPWR a_27_47# X VPB sky130_fd_pr__pfet_01v8_hvt ad=0.213258 pd=1.962121 as=0.135 ps=1.27 w=1 l=0.15
**devattr s=5400,254 d=10600,506
X1 X a_27_47# VPWR VPB sky130_fd_pr__pfet_01v8_hvt ad=0.135 pd=1.27 as=0.213258 ps=1.962121 w=1 l=0.15
**devattr s=5960,265 d=5400,254
X2 VPWR A a_27_47# VPB sky130_fd_pr__pfet_01v8_hvt ad=0.136485 pd=1.255758 as=0.1664 ps=1.8 w=0.64 l=0.15
**devattr s=6656,360 d=5960,265
X3 X a_27_47# VGND VNB sky130_fd_pr__nfet_01v8 ad=0.08775 pd=0.92 as=0.138408 ps=1.428488 w=0.65 l=0.15
**devattr s=3880,195 d=3510,184
X4 VGND a_27_47# X VNB sky130_fd_pr__nfet_01v8 ad=0.138408 pd=1.428488 as=0.08775 ps=0.92 w=0.65 l=0.15
**devattr s=3510,184 d=6890,366
X5 VGND A a_27_47# VNB sky130_fd_pr__nfet_01v8 ad=0.089433 pd=0.923023 as=0.1092 ps=1.36 w=0.42 l=0.15
**devattr s=4368,272 d=3880,195
.ends

.subckt sky130_fd_sc_hd__xnor2_1 VGND VPWR B Y A VPB VNB
X0 a_377_297# A VPWR VPB sky130_fd_pr__pfet_01v8_hvt ad=0.105 pd=1.21 as=0.3475 ps=2.195 w=1 l=0.15
**devattr s=14600,346 d=4200,242
X1 a_47_47# B VPWR VPB sky130_fd_pr__pfet_01v8_hvt ad=0.135 pd=1.27 as=0.3475 ps=2.195 w=1 l=0.15
**devattr s=12000,520 d=5400,254
X2 a_129_47# B a_47_47# VNB sky130_fd_pr__nfet_01v8 ad=0.06825 pd=0.86 as=0.169 ps=1.82 w=0.65 l=0.15
**devattr s=6760,364 d=2730,172
X3 a_285_47# B VGND VNB sky130_fd_pr__nfet_01v8 ad=0.114833 pd=1.22 as=0.114833 ps=1.22 w=0.65 l=0.15
**devattr s=6760,364 d=3510,184
X4 Y a_47_47# a_285_47# VNB sky130_fd_pr__nfet_01v8 ad=0.195 pd=1.9 as=0.114833 ps=1.22 w=0.65 l=0.15
**devattr s=3510,184 d=7800,380
X5 VGND A a_129_47# VNB sky130_fd_pr__nfet_01v8 ad=0.114833 pd=1.22 as=0.06825 ps=0.86 w=0.65 l=0.15
**devattr s=2730,172 d=3510,184
X6 VPWR A a_47_47# VPB sky130_fd_pr__pfet_01v8_hvt ad=0.3475 pd=2.195 as=0.135 ps=1.27 w=1 l=0.15
**devattr s=5400,254 d=14600,346
X7 VPWR a_47_47# Y VPB sky130_fd_pr__pfet_01v8_hvt ad=0.3475 pd=2.195 as=0.165 ps=1.33 w=1 l=0.15
**devattr s=6600,266 d=14400,544
X8 Y B a_377_297# VPB sky130_fd_pr__pfet_01v8_hvt ad=0.165 pd=1.33 as=0.105 ps=1.21 w=1 l=0.15
**devattr s=4200,242 d=6600,266
X9 a_285_47# A VGND VNB sky130_fd_pr__nfet_01v8 ad=0.114833 pd=1.22 as=0.114833 ps=1.22 w=0.65 l=0.15
**devattr s=3510,184 d=6760,364
.ends

.subckt sky130_fd_sc_hd__dfxtp_2 Q CLK D VPB VNB VPWR VGND
X0 Q a_1059_315# VGND VNB sky130_fd_pr__nfet_01v8 ad=0.08775 pd=0.92 as=0.127256 ps=1.376226 w=0.65 l=0.15
**devattr s=3510,184 d=3510,184
X1 a_891_413# a_193_47# a_634_159# VNB sky130_fd_pr__nfet_01v8 ad=0.0684 pd=0.74 as=0.071208 ps=0.7164 w=0.36 l=0.15
**devattr s=3956,199 d=2736,148
X2 VPWR a_1059_315# Q VPB sky130_fd_pr__pfet_01v8_hvt ad=0.203665 pd=1.928458 as=0.135 ps=1.27 w=1 l=0.15
**devattr s=5400,254 d=10400,504
X3 a_561_413# a_27_47# a_466_413# VPB sky130_fd_pr__pfet_01v8_hvt ad=0.07665 pd=0.785 as=0.06825 ps=0.745 w=0.42 l=0.15
**devattr s=2730,149 d=3066,157
X4 VPWR CLK a_27_47# VPB sky130_fd_pr__pfet_01v8_hvt ad=0.130345 pd=1.234213 as=0.1664 ps=1.8 w=0.64 l=0.15
**devattr s=6656,360 d=3456,182
X5 Q a_1059_315# VPWR VPB sky130_fd_pr__pfet_01v8_hvt ad=0.135 pd=1.27 as=0.203665 ps=1.928458 w=1 l=0.15
**devattr s=5400,254 d=5400,254
X6 a_381_47# D VPWR VPB sky130_fd_pr__pfet_01v8_hvt ad=0.05775 pd=0.695 as=0.085539 ps=0.809952 w=0.42 l=0.15
**devattr s=4368,272 d=2310,139
X7 VGND a_634_159# a_592_47# VNB sky130_fd_pr__nfet_01v8 ad=0.082227 pd=0.889254 as=0.074954 ps=0.823846 w=0.42 l=0.15
**devattr s=2784,153 d=4838,217
X8 VGND a_1059_315# Q VNB sky130_fd_pr__nfet_01v8 ad=0.127256 pd=1.376226 as=0.08775 ps=0.92 w=0.65 l=0.15
**devattr s=3510,184 d=6760,364
X9 VPWR a_891_413# a_1059_315# VPB sky130_fd_pr__pfet_01v8_hvt ad=0.203665 pd=1.928458 as=0.27 ps=2.54 w=1 l=0.15
**devattr s=10800,508 d=5400,254
X10 a_466_413# a_193_47# a_381_47# VPB sky130_fd_pr__pfet_01v8_hvt ad=0.06825 pd=0.745 as=0.05775 ps=0.695 w=0.42 l=0.15
**devattr s=2310,139 d=2730,149
X11 VPWR a_634_159# a_561_413# VPB sky130_fd_pr__pfet_01v8_hvt ad=0.085539 pd=0.809952 as=0.07665 ps=0.785 w=0.42 l=0.15
**devattr s=3066,157 d=7155,252
X12 a_634_159# a_466_413# VGND VNB sky130_fd_pr__nfet_01v8 ad=0.126592 pd=1.2736 as=0.125298 ps=1.355053 w=0.64 l=0.15
**devattr s=4838,217 d=3956,199
X13 a_634_159# a_466_413# VPWR VPB sky130_fd_pr__pfet_01v8_hvt ad=0.140385 pd=1.378205 as=0.152748 ps=1.446343 w=0.75 l=0.15
**devattr s=7155,252 d=4380,215
X14 a_975_413# a_193_47# a_891_413# VPB sky130_fd_pr__pfet_01v8_hvt ad=0.0882 pd=0.84 as=0.0567 ps=0.69 w=0.42 l=0.15
**devattr s=2268,138 d=3528,168
X15 VGND a_1059_315# a_1017_47# VNB sky130_fd_pr__nfet_01v8 ad=0.082227 pd=0.889254 as=0.071077 ps=0.802308 w=0.42 l=0.15
**devattr s=2640,149 d=4368,272
X16 a_193_47# a_27_47# VGND VNB sky130_fd_pr__nfet_01v8 ad=0.1092 pd=1.36 as=0.082227 ps=0.889254 w=0.42 l=0.15
**devattr s=2268,138 d=4368,272
X17 a_891_413# a_27_47# a_634_159# VPB sky130_fd_pr__pfet_01v8_hvt ad=0.0567 pd=0.69 as=0.078615 ps=0.771795 w=0.42 l=0.15
**devattr s=4380,215 d=2268,138
X18 a_592_47# a_193_47# a_466_413# VNB sky130_fd_pr__nfet_01v8 ad=0.064246 pd=0.706154 as=0.0621 ps=0.705 w=0.36 l=0.15
**devattr s=2484,141 d=2784,153
X19 a_1017_47# a_27_47# a_891_413# VNB sky130_fd_pr__nfet_01v8 ad=0.060923 pd=0.687692 as=0.0684 ps=0.74 w=0.36 l=0.15
**devattr s=2736,148 d=2640,149
X20 VPWR a_1059_315# a_975_413# VPB sky130_fd_pr__pfet_01v8_hvt ad=0.085539 pd=0.809952 as=0.0882 ps=0.84 w=0.42 l=0.15
**devattr s=3528,168 d=4452,274
X21 a_466_413# a_27_47# a_381_47# VNB sky130_fd_pr__nfet_01v8 ad=0.0621 pd=0.705 as=0.075046 ps=0.766154 w=0.36 l=0.15
**devattr s=3252,166 d=2484,141
X22 a_193_47# a_27_47# VPWR VPB sky130_fd_pr__pfet_01v8_hvt ad=0.1664 pd=1.8 as=0.130345 ps=1.234213 w=0.64 l=0.15
**devattr s=3456,182 d=6656,360
X23 VGND a_891_413# a_1059_315# VNB sky130_fd_pr__nfet_01v8 ad=0.127256 pd=1.376226 as=0.169 ps=1.82 w=0.65 l=0.15
**devattr s=6760,364 d=3510,184
X24 a_381_47# D VGND VNB sky130_fd_pr__nfet_01v8 ad=0.087554 pd=0.893846 as=0.082227 ps=0.889254 w=0.42 l=0.15
**devattr s=4368,272 d=3252,166
X25 VGND CLK a_27_47# VNB sky130_fd_pr__nfet_01v8 ad=0.082227 pd=0.889254 as=0.1092 ps=1.36 w=0.42 l=0.15
**devattr s=4368,272 d=2268,138
.ends

.subckt sky130_fd_sc_hd__inv_2 VPB VNB VPWR VGND Y A
X0 Y A VPWR VPB sky130_fd_pr__pfet_01v8_hvt ad=0.135 pd=1.27 as=0.26 ps=2.52 w=1 l=0.15
**devattr s=10400,504 d=5400,254
X1 VGND A Y VNB sky130_fd_pr__nfet_01v8 ad=0.169 pd=1.82 as=0.08775 ps=0.92 w=0.65 l=0.15
**devattr s=3510,184 d=6760,364
X2 Y A VGND VNB sky130_fd_pr__nfet_01v8 ad=0.08775 pd=0.92 as=0.169 ps=1.82 w=0.65 l=0.15
**devattr s=6760,364 d=3510,184
X3 VPWR A Y VPB sky130_fd_pr__pfet_01v8_hvt ad=0.26 pd=2.52 as=0.135 ps=1.27 w=1 l=0.15
**devattr s=5400,254 d=10400,504
.ends

.subckt sky130_fd_sc_hd__clkbuf_16 VNB VPB VGND VPWR A X
X0 VPWR A a_110_47# VPB sky130_fd_pr__pfet_01v8_hvt ad=0.15225 pd=1.4045 as=0.14 ps=1.28 w=1 l=0.15
**devattr s=5600,256 d=5600,256
X1 VPWR a_110_47# X VPB sky130_fd_pr__pfet_01v8_hvt ad=0.15225 pd=1.4045 as=0.14 ps=1.28 w=1 l=0.15
**devattr s=5600,256 d=5600,256
X2 X a_110_47# VPWR VPB sky130_fd_pr__pfet_01v8_hvt ad=0.14 pd=1.28 as=0.15225 ps=1.4045 w=1 l=0.15
**devattr s=5600,256 d=5600,256
X3 X a_110_47# VPWR VPB sky130_fd_pr__pfet_01v8_hvt ad=0.14 pd=1.28 as=0.15225 ps=1.4045 w=1 l=0.15
**devattr s=5600,256 d=5600,256
X4 VPWR a_110_47# X VPB sky130_fd_pr__pfet_01v8_hvt ad=0.15225 pd=1.4045 as=0.14 ps=1.28 w=1 l=0.15
**devattr s=5600,256 d=5600,256
X5 VPWR a_110_47# X VPB sky130_fd_pr__pfet_01v8_hvt ad=0.15225 pd=1.4045 as=0.14 ps=1.28 w=1 l=0.15
**devattr s=5600,256 d=10600,506
X6 a_110_47# A VPWR VPB sky130_fd_pr__pfet_01v8_hvt ad=0.14 pd=1.28 as=0.15225 ps=1.4045 w=1 l=0.15
**devattr s=10600,506 d=5600,256
X7 a_110_47# A VGND VNB sky130_fd_pr__nfet_01v8 ad=0.0588 pd=0.7 as=0.063945 ps=0.7665 w=0.42 l=0.15
**devattr s=2352,140 d=2352,140
X8 VGND a_110_47# X VNB sky130_fd_pr__nfet_01v8 ad=0.063945 pd=0.7665 as=0.0588 ps=0.7 w=0.42 l=0.15
**devattr s=2352,140 d=2352,140
X9 X a_110_47# VGND VNB sky130_fd_pr__nfet_01v8 ad=0.0588 pd=0.7 as=0.063945 ps=0.7665 w=0.42 l=0.15
**devattr s=2352,140 d=2352,140